data_04-015-9120
#Copyright 2021 International Centre for Diffraction Data. All rights reserved.

_audit_creation_date                  2021-12-16
_audit_creation_method                'Generated by PDF-4+ 2022 4.22.0.2'

_chemical_name_systematic             'Iron Oxide'
_chemical_formula_moiety              'Fe3 O4'
_chemical_formula_sum                 'Fe3 O4'
_chemical_formula_weight              231.53

_cell_length_a                        8.3985(5)
_cell_length_b                        8.3985(5)
_cell_length_c                        8.3985(5)
_cell_angle_alpha                     90
_cell_angle_beta                      90
_cell_angle_gamma                     90
_cell_formula_units_Z                 8
_cell_volume                          592.39
_symmetry_cell_setting                cubic
_symmetry_space_group_name_H-M        F-43m
_symmetry_Int_Tables_number           216

loop_
_symmetry_equiv_pos_site_id
_symmetry_equiv_pos_as_xyz
1 x,y,z
2 z,x,y
3 y,z,x
4 x,z,y
5 y,x,z
6 z,y,x
7 x,-y,-z
8 z,-x,-y
9 y,-z,-x
10 x,-z,-y
11 y,-x,-z
12 z,-y,-x
13 -x,y,-z
14 -z,x,-y
15 -y,z,-x
16 -x,z,-y
17 -y,x,-z
18 -z,y,-x
19 -x,-y,z
20 -z,-x,y
21 -y,-z,x
22 -x,-z,y
23 -y,-x,z
24 -z,-y,x
25 x,y+1/2,z+1/2
26 z,x+1/2,y+1/2
27 y,z+1/2,x+1/2
28 x,z+1/2,y+1/2
29 y,x+1/2,z+1/2
30 z,y+1/2,x+1/2
31 x,-y+1/2,-z+1/2
32 z,-x+1/2,-y+1/2
33 y,-z+1/2,-x+1/2
34 x,-z+1/2,-y+1/2
35 y,-x+1/2,-z+1/2
36 z,-y+1/2,-x+1/2
37 -x,y+1/2,-z+1/2
38 -z,x+1/2,-y+1/2
39 -y,z+1/2,-x+1/2
40 -x,z+1/2,-y+1/2
41 -y,x+1/2,-z+1/2
42 -z,y+1/2,-x+1/2
43 -x,-y+1/2,z+1/2
44 -z,-x+1/2,y+1/2
45 -y,-z+1/2,x+1/2
46 -x,-z+1/2,y+1/2
47 -y,-x+1/2,z+1/2
48 -z,-y+1/2,x+1/2
49 x+1/2,y,z+1/2
50 z+1/2,x,y+1/2
51 y+1/2,z,x+1/2
52 x+1/2,z,y+1/2
53 y+1/2,x,z+1/2
54 z+1/2,y,x+1/2
55 x+1/2,-y,-z+1/2
56 z+1/2,-x,-y+1/2
57 y+1/2,-z,-x+1/2
58 x+1/2,-z,-y+1/2
59 y+1/2,-x,-z+1/2
60 z+1/2,-y,-x+1/2
61 -x+1/2,y,-z+1/2
62 -z+1/2,x,-y+1/2
63 -y+1/2,z,-x+1/2
64 -x+1/2,z,-y+1/2
65 -y+1/2,x,-z+1/2
66 -z+1/2,y,-x+1/2
67 -x+1/2,-y,z+1/2
68 -z+1/2,-x,y+1/2
69 -y+1/2,-z,x+1/2
70 -x+1/2,-z,y+1/2
71 -y+1/2,-x,z+1/2
72 -z+1/2,-y,x+1/2
73 x+1/2,y+1/2,z
74 z+1/2,x+1/2,y
75 y+1/2,z+1/2,x
76 x+1/2,z+1/2,y
77 y+1/2,x+1/2,z
78 z+1/2,y+1/2,x
79 x+1/2,-y+1/2,-z
80 z+1/2,-x+1/2,-y
81 y+1/2,-z+1/2,-x
82 x+1/2,-z+1/2,-y
83 y+1/2,-x+1/2,-z
84 z+1/2,-y+1/2,-x
85 -x+1/2,y+1/2,-z
86 -z+1/2,x+1/2,-y
87 -y+1/2,z+1/2,-x
88 -x+1/2,z+1/2,-y
89 -y+1/2,x+1/2,-z
90 -z+1/2,y+1/2,-x
91 -x+1/2,-y+1/2,z
92 -z+1/2,-x+1/2,y
93 -y+1/2,-z+1/2,x
94 -x+1/2,-z+1/2,y
95 -y+1/2,-x+1/2,z
96 -z+1/2,-y+1/2,x

loop_
_atom_site_label
_atom_site_type_symbol
_atom_site_fract_x
_atom_site_fract_y
_atom_site_fract_z
_atom_site_B_iso_or_equiv
_atom_site_symmetry_multiplicity
_atom_site_Wyckoff_symbol
_atom_site_occupancy
Fe1 Fe 0.0 0.0 0.0 0.351 4 a 1.0
Fe2 Fe 0.25 0.25 0.25 0.342 4 c 1.0
Fe3 Fe 0.6253 0.6253 0.6253 0.47299 16 e 1.0
O4 O 0.8722 0.8722 0.8722 0.355 16 e 1.0
O5 O 0.3817 0.3817 0.3817 0.79499 16 e 1.0

loop_
_atom_site_aniso_label
_atom_site_aniso_B_11
_atom_site_aniso_B_12
_atom_site_aniso_B_13
_atom_site_aniso_B_22
_atom_site_aniso_B_23
_atom_site_aniso_B_33
Fe1 0.351 0.0 0.0 0.351 0.0 0.351
Fe2 0.342 0.0 0.0 0.342 0.0 0.342
Fe3 0.473 0.051 0.051 0.473 0.051 0.473
O4 0.355 0.124 0.124 0.355 0.124 0.355
O5 0.795 -0.274 -0.274 0.795 -0.274 0.795

