data_04-023-9406
#Copyright 2021 International Centre for Diffraction Data. All rights reserved.

_audit_creation_date                  2021-12-16
_audit_creation_method                'Generated by PDF-4+ 2022 4.22.0.2'

_chemical_name_systematic             'Iron Oxide'
_chemical_formula_moiety              'Fe25 O32'
_chemical_formula_sum                 'Fe25 O32'
_chemical_formula_weight              1908.09

_cell_length_a                        13.4275(16)
_cell_length_b                        13.4275(16)
_cell_length_c                        2.6289(4)
_cell_angle_alpha                     90
_cell_angle_beta                      90
_cell_angle_gamma                     120
_cell_formula_units_Z                 1
_cell_volume                          410.48
_symmetry_cell_setting                hexagonal
_symmetry_space_group_name_H-M        P-62m
_symmetry_Int_Tables_number           189

loop_
_symmetry_equiv_pos_site_id
_symmetry_equiv_pos_as_xyz
1 x,y,z
2 -y,x-y,z
3 -x+y,-x,z
4 x,y,-z
5 -y,x-y,-z
6 -x+y,-x,-z
7 y,x,z
8 -x,-x+y,z
9 x-y,-y,z
10 y,x,-z
11 -x,-x+y,-z
12 x-y,-y,-z

loop_
_atom_site_label
_atom_site_type_symbol
_atom_site_fract_x
_atom_site_fract_y
_atom_site_fract_z
_atom_site_U_iso_or_equiv
_atom_site_symmetry_multiplicity
_atom_site_Wyckoff_symbol
_atom_site_occupancy
Fe1 Fe 0.0 0.0 0.0 0.01367 1 a 1.0
Fe2 Fe 0.2054 0.0 0.0 0.01446 3 f 1.0
Fe3 Fe 0.3929 0.0 0.0 0.01399 3 f 1.0
Fe4 Fe 0.1784 0.1784 0.5 0.01344 3 g 1.0
Fe5 Fe 0.4013 0.2133 0.5 0.01334 6 k 1.0
Fe6 Fe 0.5933 0.2043 0.5 0.0136 6 k 1.0
Fe7 Fe 0.4126 0.4126 0.0 0.01226 3 f 1.0
O8 O 0.1061 0.0 0.5 0.01 3 g 1.0
O9 O 0.2981 0.0 0.5 0.013 3 g 1.0
O10 O 0.4903 0.0 0.5 0.02 3 g 1.0
O11 O 0.2754 0.1561 0.0 0.015 6 j 1.0
O12 O 0.4693 0.1538 0.0 0.01 6 j 1.0
O13 O 0.66666 0.33333 0.0 0.008 2 c 1.0
O14 O 0.3238 0.3238 0.5 0.012 3 g 1.0
O15 O 0.4869 0.336 0.0 0.013 6 j 1.0

loop_
_atom_site_aniso_label
_atom_site_aniso_U_11
_atom_site_aniso_U_12
_atom_site_aniso_U_13
_atom_site_aniso_U_22
_atom_site_aniso_U_23
_atom_site_aniso_U_33
Fe1 0.016 0.008 0.0 0.016 0.0 0.009
Fe2 0.0163 0.0077 0.0 0.015 0.0 0.0119
Fe3 0.016 0.0077 0.0 0.015 0.0 0.0109
Fe4 0.0145 0.0085 0.0 0.0145 0.0 0.013
Fe5 0.0148 0.0066 0.0 0.0144 0.0 0.0099
Fe6 0.0139 0.0067 0.0 0.0144 0.0 0.012
Fe7 0.014 0.0074 0.0 0.014 0.0 0.0093

