data_01-082-1871
#Copyright 2021 International Centre for Diffraction Data. All rights reserved.

_audit_creation_date                  2021-12-16
_audit_creation_method                'Generated by PDF-4+ 2022 4.22.0.2'

_chemical_name_systematic             'Iron Vanadium Oxide'
_chemical_formula_moiety              'Fe0.11 V2 O5.15'
_chemical_formula_sum                 'Fe0.11 O5.15 V2'
_chemical_formula_weight              190.42

_cell_length_a                        11.5415(7)
_cell_length_b                        3.5642(2)
_cell_length_c                        4.3596(3)
_cell_angle_alpha                     90
_cell_angle_beta                      90
_cell_angle_gamma                     90
_cell_formula_units_Z                 2
_cell_volume                          179.34
_symmetry_cell_setting                orthorhombic
_symmetry_space_group_name_H-M        Pmmn
_symmetry_Int_Tables_number           59

loop_
_symmetry_equiv_pos_site_id
_symmetry_equiv_pos_as_xyz
1 x,y,z
2 -x,-y,-z
3 -x+1/2,y,z
4 x+1/2,-y,-z
5 x,-y+1/2,z
6 -x,y+1/2,-z
7 -x+1/2,-y+1/2,z
8 x+1/2,y+1/2,-z

loop_
_atom_site_label
_atom_site_type_symbol
_atom_site_fract_x
_atom_site_fract_y
_atom_site_fract_z
_atom_site_U_iso_or_equiv
_atom_site_symmetry_multiplicity
_atom_site_Wyckoff_symbol
_atom_site_occupancy
V1 V 0.3994 0.25 0.071 0.042 4 f 1.0
O2 O 0.388 0.25 0.384 0.01 4 f 1.0
O3 O 0.562 0.25 0.967 0.01 4 f 1.0
O4 O 0.25 0.25 0.004 0.01 2 a 1.0
Fe5 Fe 0.75 0.25 0.03 0.01 2 b 0.11
O6 O 0.75 0.25 0.532 . 2 b 0.15

