data_04-014-1695
#Copyright 2021 International Centre for Diffraction Data. All rights reserved.

_audit_creation_date                  2021-12-16
_audit_creation_method                'Generated by PDF-4+ 2022 4.22.0.2'

_chemical_name_systematic             'Vanadium Oxide'
_chemical_formula_moiety              'V O2'
_chemical_formula_sum                 'O2 V'
_chemical_formula_weight              82.94

_cell_length_a                        12.0673(3)
_cell_length_b                        3.6892(2)
_cell_length_c                        6.4212(2)
_cell_angle_alpha                     90
_cell_angle_beta                      106.97
_cell_angle_gamma                     90
_cell_formula_units_Z                 8
_cell_volume                          273.42
_symmetry_cell_setting                monoclinic
_symmetry_space_group_name_H-M        C2/m
_symmetry_Int_Tables_number           12

loop_
_symmetry_equiv_pos_site_id
_symmetry_equiv_pos_as_xyz
1 x,y,z
2 -x,-y,-z
3 x,-y,z
4 -x,y,-z
5 x+1/2,y+1/2,z
6 -x+1/2,-y+1/2,-z
7 x+1/2,-y+1/2,z
8 -x+1/2,y+1/2,-z

loop_
_atom_site_label
_atom_site_type_symbol
_atom_site_fract_x
_atom_site_fract_y
_atom_site_fract_z
_atom_site_U_iso_or_equiv
_atom_site_symmetry_multiplicity
_atom_site_Wyckoff_symbol
_atom_site_occupancy
V1 V 0.8036 0.0 0.7369 . 4 i 1.0
V2 V 0.9023 0.0 0.3102 . 4 i 1.0
O3 O 0.864 0.0 0.9953 . 4 i 1.0
O4 O 0.7334 0.0 0.341 . 4 i 1.0
O5 O 0.939 0.0 0.6459 . 4 i 1.0
O6 O 0.631 0.0 0.697 . 4 i 1.0

