data_04-018-9831
#Copyright 2021 International Centre for Diffraction Data. All rights reserved.

_audit_creation_date                  2021-12-16
_audit_creation_method                'Generated by PDF-4+ 2022 4.22.0.2'

_chemical_name_systematic             'Iron Vanadium Oxide'
_chemical_formula_moiety              'V2 Fe O4'
_chemical_formula_sum                 'Fe O4 V2'
_chemical_formula_weight              221.72

_cell_length_a                        8.52450(10)
_cell_length_b                        8.3229(2)
_cell_length_c                        8.4612(5)
_cell_angle_alpha                     90
_cell_angle_beta                      90
_cell_angle_gamma                     90
_cell_formula_units_Z                 8
_cell_volume                          600.31
_symmetry_cell_setting                orthorhombic
_symmetry_space_group_name_H-M        Fddd
_symmetry_Int_Tables_number           70

loop_
_symmetry_equiv_pos_site_id
_symmetry_equiv_pos_as_xyz
1 x,y,z
2 -x,-y,-z
3 -x+3/4,-y+3/4,z
4 x+1/4,y+1/4,-z
5 -x+3/4,y,-z+3/4
6 x+1/4,-y,z+1/4
7 x,-y+3/4,-z+3/4
8 -x,y+1/4,z+1/4
9 x,y+1/2,z+1/2
10 -x,-y+1/2,-z+1/2
11 -x+3/4,-y+1/4,z+1/2
12 x+1/4,y+3/4,-z+1/2
13 -x+3/4,y+1/2,-z+1/4
14 x+1/4,-y+1/2,z+3/4
15 x,-y+1/4,-z+1/4
16 -x,y+3/4,z+3/4
17 x+1/2,y,z+1/2
18 -x+1/2,-y,-z+1/2
19 -x+1/4,-y+3/4,z+1/2
20 x+3/4,y+1/4,-z+1/2
21 -x+1/4,y,-z+1/4
22 x+3/4,-y,z+3/4
23 x+1/2,-y+3/4,-z+1/4
24 -x+1/2,y+1/4,z+3/4
25 x+1/2,y+1/2,z
26 -x+1/2,-y+1/2,-z
27 -x+1/4,-y+1/4,z
28 x+3/4,y+3/4,-z
29 -x+1/4,y+1/2,-z+3/4
30 x+3/4,-y+1/2,z+1/4
31 x+1/2,-y+1/4,-z+3/4
32 -x+1/2,y+3/4,z+1/4

loop_
_atom_site_label
_atom_site_type_symbol
_atom_site_fract_x
_atom_site_fract_y
_atom_site_fract_z
_atom_site_U_iso_or_equiv
_atom_site_symmetry_multiplicity
_atom_site_Wyckoff_symbol
_atom_site_occupancy
Fe1 Fe 0.125 0.125 0.125 0.00387 8 a 1.0
V2 V 0.0 0.25 0.75 0.00282 16 d 1.0
O3 O 0.9864 0.25792 0.98822 0.00437 32 h 1.0

loop_
_atom_site_aniso_label
_atom_site_aniso_U_11
_atom_site_aniso_U_12
_atom_site_aniso_U_13
_atom_site_aniso_U_22
_atom_site_aniso_U_23
_atom_site_aniso_U_33
Fe1 0.00298 0.0 0.0 0.00434 0.0 0.0043
V2 0.00241 -2.0E-5 1.1E-4 0.00282 -1.0E-5 0.00324
O3 0.0039 4.3E-4 -2.1E-4 0.0042 3.1E-4 0.005

