data_04-025-8861
#Copyright 2021 International Centre for Diffraction Data. All rights reserved.

_audit_creation_date                  2021-12-16
_audit_creation_method                'Generated by PDF-4+ 2022 4.22.0.2'

_chemical_name_systematic             'Iron Oxide'
_chemical_formula_moiety              'Fe3 O4'
_chemical_formula_sum                 'Fe3 O4'
_chemical_formula_weight              231.53

_cell_length_a                        9.309(3)
_cell_length_b                        9.282(2)
_cell_length_c                        2.6944(9)
_cell_angle_alpha                     90
_cell_angle_beta                      90
_cell_angle_gamma                     90
_cell_formula_units_Z                 4
_cell_volume                          232.81
_symmetry_cell_setting                orthorhombic
_symmetry_space_group_name_H-M        Bbmm
_symmetry_Int_Tables_number           63

loop_
_symmetry_equiv_pos_site_id
_symmetry_equiv_pos_as_xyz
1 x,y,z
2 -x,-y,-z
3 -x,-y,z
4 x,y,-z
5 x,-y+1/2,z
6 -x,y+1/2,-z
7 -x,y+1/2,z
8 x,-y+1/2,-z
9 x+1/2,y,z+1/2
10 -x+1/2,-y,-z+1/2
11 -x+1/2,-y,z+1/2
12 x+1/2,y,-z+1/2
13 x+1/2,-y+1/2,z+1/2
14 -x+1/2,y+1/2,-z+1/2
15 -x+1/2,y+1/2,z+1/2
16 x+1/2,-y+1/2,-z+1/2

loop_
_atom_site_label
_atom_site_type_symbol
_atom_site_fract_x
_atom_site_fract_y
_atom_site_fract_z
_atom_site_U_iso_or_equiv
_atom_site_symmetry_multiplicity
_atom_site_Wyckoff_symbol
_atom_site_occupancy
Fe1 Fe 0.1319 0.0749 0.0 0.01167 8 f 1.0
Fe2 Fe 0.3811 0.25 0.0 0.01167 4 c 1.0
O3 O 0.5 0.0 0.0 0.018 4 b 1.0
O4 O 0.0344 0.25 0.0 0.007 4 c 1.0
O5 O 0.2216 -0.1201 0.0 0.006 8 f 1.0

loop_
_atom_site_aniso_label
_atom_site_aniso_U_11
_atom_site_aniso_U_12
_atom_site_aniso_U_13
_atom_site_aniso_U_22
_atom_site_aniso_U_23
_atom_site_aniso_U_33
Fe1 0.0138 -0.0026 0.0 0.0052 0.0 0.016
Fe2 0.012 0.0 0.0 0.011 0.0 0.012

