data_04-018-0091
#Copyright 2021 International Centre for Diffraction Data. All rights reserved.

_audit_creation_date                  2021-12-16
_audit_creation_method                'Generated by PDF-4+ 2022 4.22.0.2'

_chemical_name_systematic             'Iron Oxide'
_chemical_name_common                 'magnetite, syn'
_chemical_formula_moiety              'Fe3 O4'
_chemical_formula_sum                 'Fe3 O4'
_chemical_formula_weight              231.53

_cell_length_a                        11.89310(1)
_cell_length_b                        11.85418(2)
_cell_length_c                        16.78310(2)
_cell_angle_alpha                     90
_cell_angle_beta                      90.2367(2)
_cell_angle_gamma                     90
_cell_formula_units_Z                 32
_cell_volume                          2366.11
_symmetry_cell_setting                monoclinic
_symmetry_space_group_name_H-M        C2/c
_symmetry_Int_Tables_number           15

loop_
_symmetry_equiv_pos_site_id
_symmetry_equiv_pos_as_xyz
1 x,y,z
2 -x,-y,-z
3 -x,y,-z+1/2
4 x,-y,z+1/2
5 x+1/2,y+1/2,z
6 -x+1/2,-y+1/2,-z
7 -x+1/2,y+1/2,-z+1/2
8 x+1/2,-y+1/2,z+1/2

loop_
_atom_site_label
_atom_site_type_symbol
_atom_site_fract_x
_atom_site_fract_y
_atom_site_fract_z
_atom_site_B_iso_or_equiv
_atom_site_symmetry_multiplicity
_atom_site_Wyckoff_symbol
_atom_site_occupancy
Fe1 Fe 0.12413 0.003 0.06416 0.258 8 f 1.0
Fe2 Fe 0.62587 6.0E-4 0.06242 0.258 8 f 1.0
Fe3 Fe 0.3747 0.7538 0.3134 0.258 8 f 1.0
Fe4 Fe 0.3753 0.2521 0.31 0.258 8 f 1.0
Fe5 Fe -0.0023 0.7474 0.5005 0.258 8 f 1.0
Fe6 Fe 0.75 0.25 0.5 0.258 4 c 1.0
Fe7 Fe 0.75 0.25 0.0 0.258 4 d 1.0
Fe8 Fe 0.5 0.0027 0.25 0.258 4 e 1.0
Fe9 Fe 0.0 0.0068 0.25 0.258 4 e 1.0
Fe10 Fe 0.25088 0.0048 0.25088 0.258 8 f 1.0
Fe11 Fe 0.3748 0.6309 0.1192 0.258 8 f 1.0
Fe12 Fe 0.1248 0.3657 0.8803 0.258 8 f 1.0
Fe13 Fe 0.6222 0.624 0.8762 0.258 8 f 1.0
Fe14 Fe 0.1278 0.3776 0.3749 0.258 8 f 1.0
O15 O 0.372 0.1269 0.5056 0.258 8 f 1.0
O16 O 0.123 0.132 0.9994 0.258 8 f 1.0
O17 O 0.6261 0.8722 0.9975 0.258 8 f 1.0
O18 O 0.375 0.3712 0.5015 0.258 8 f 1.0
O19 O 0.6142 0.6311 0.2573 0.258 8 f 1.0
O20 O 0.1347 0.6187 0.257 0.258 8 f 1.0
O21 O 0.3683 0.3905 0.2468 0.258 8 f 1.0
O22 O 0.3827 0.8841 0.2526 0.258 8 f 1.0
O23 O 0.4973 0.0075 0.1292 0.258 8 f 1.0
O24 O 0.0027 0.0031 0.8708 0.258 8 f 1.0
O25 O 0.2501 0.0081 0.1319 0.258 8 f 1.0
O26 O 0.7561 -0.0037 0.1259 0.258 8 f 1.0
O27 O 0.4985 0.2497 0.3755 0.258 8 f 1.0
O28 O 0.9896 0.2557 0.1243 0.258 8 f 1.0
O29 O 0.242 0.7527 0.3781 0.258 8 f 1.0
O30 O 0.7502 0.2527 0.1262 0.258 8 f 1.0

