data_00-042-0876
#Copyright 2021 International Centre for Diffraction Data. All rights reserved.

_audit_creation_date                  2021-12-16
_audit_creation_method                'Generated by PDF-4+ 2022 4.22.0.2'

_chemical_name_systematic             'Vanadium Oxide'
_chemical_formula_moiety              'V O2'
_chemical_formula_sum                 'O2 V'
_chemical_formula_weight              82.94

_cell_length_a                        8.4336(7)
_cell_length_b                        8.4336(7)
_cell_length_c                        7.6782(7)
_cell_angle_alpha                     90
_cell_angle_beta                      90
_cell_angle_gamma                     90
_cell_formula_units_Z                 16
_cell_volume                          546.12
_symmetry_cell_setting                tetragonal
_symmetry_space_group_name_H-M        P42/ncm
_symmetry_Int_Tables_number           138

loop_
_symmetry_equiv_pos_site_id
_symmetry_equiv_pos_as_xyz
1 x,y,z
2 -x,y,z+1/2
3 -x+1/2,y+1/2,-z
4 x+1/2,y+1/2,-z+1/2
5 -x,-y,z
6 x,-y,z+1/2
7 x+1/2,-y+1/2,-z
8 -x+1/2,-y+1/2,-z+1/2
9 -y,x,-z
10 y,x,-z+1/2
11 y+1/2,x+1/2,z
12 -y+1/2,x+1/2,z+1/2
13 y,-x,-z
14 -y,-x,-z+1/2
15 -y+1/2,-x+1/2,z
16 y+1/2,-x+1/2,z+1/2

loop_
_atom_site_label
_atom_site_type_symbol
_atom_site_fract_x
_atom_site_fract_y
_atom_site_fract_z
_atom_site_U_iso_or_equiv
_atom_site_symmetry_multiplicity
_atom_site_Wyckoff_symbol
_atom_site_occupancy
V1 V 0.18936 0.01764 0.11787 . 16 j 1.0
O2 O 0.1674 0.0012 0.3743 . 16 j 1.0
O3 O 0.1634 0.6634 0.3416 . 8 i 1.0
O4 O 0.1352 0.6352 0.893 . 8 i 1.0

