data_04-020-7578
#Copyright 2021 International Centre for Diffraction Data. All rights reserved.

_audit_creation_date                  2021-12-16
_audit_creation_method                'Generated by PDF-4+ 2022 4.22.0.2'

_chemical_name_systematic             'Copper Oxide'
_chemical_formula_moiety              'Cu2 O'
_chemical_formula_sum                 'Cu2 O'
_chemical_formula_weight              143.09

_cell_length_a                        4.1937(3)
_cell_length_b                        4.1937(3)
_cell_length_c                        4.2435(7)
_cell_angle_alpha                     90
_cell_angle_beta                      90
_cell_angle_gamma                     90
_cell_formula_units_Z                 2
_cell_volume                          74.63
_symmetry_cell_setting                tetragonal
_symmetry_space_group_name_H-M        P42/nnm
_symmetry_Int_Tables_number           134

loop_
_symmetry_equiv_pos_site_id
_symmetry_equiv_pos_as_xyz
1 x,y,z
2 -x,-y,-z
3 -x,y+1/2,z+1/2
4 x,-y+1/2,-z+1/2
5 x+1/2,-y,z+1/2
6 -x+1/2,y,-z+1/2
7 -x+1/2,-y+1/2,z
8 x+1/2,y+1/2,-z
9 y+1/2,x+1/2,z
10 -y+1/2,-x+1/2,-z
11 -y+1/2,x,z+1/2
12 y+1/2,-x,-z+1/2
13 y,-x+1/2,z+1/2
14 -y,x+1/2,-z+1/2
15 -y,-x,z
16 y,x,-z

loop_
_atom_site_label
_atom_site_type_symbol
_atom_site_fract_x
_atom_site_fract_y
_atom_site_fract_z
_atom_site_U_iso_or_equiv
_atom_site_symmetry_multiplicity
_atom_site_Wyckoff_symbol
_atom_site_occupancy
Cu1 Cu 0.0 0.0 0.0 . 4 f 1.0
O2 O 0.25 0.75 0.25 . 2 a 1.0

