data_04-013-7743
#Copyright 2021 International Centre for Diffraction Data. All rights reserved.

_audit_creation_date                  2021-12-15
_audit_creation_method                'Generated by PDF-4+ 2022 4.22.0.2'

_chemical_name_systematic             'Copper Vanadium Oxide'
_chemical_formula_moiety              'Cu1.5 V12 O29'
_chemical_formula_sum                 'Cu1.5 O29 V12'
_chemical_formula_weight              1170.59

_cell_length_a                        28.0143(4)
_cell_length_b                        3.6192(1)
_cell_length_c                        10.1420(2)
_cell_angle_alpha                     90
_cell_angle_beta                      99.722(1)
_cell_angle_gamma                     90
_cell_formula_units_Z                 2
_cell_volume                          1013.52
_symmetry_cell_setting                monoclinic
_symmetry_space_group_name_H-M        C2/m
_symmetry_Int_Tables_number           12

loop_
_symmetry_equiv_pos_site_id
_symmetry_equiv_pos_as_xyz
1 x,y,z
2 -x,-y,-z
3 x,-y,z
4 -x,y,-z
5 x+1/2,y+1/2,z
6 -x+1/2,-y+1/2,-z
7 x+1/2,-y+1/2,z
8 -x+1/2,y+1/2,-z

loop_
_atom_site_label
_atom_site_type_symbol
_atom_site_fract_x
_atom_site_fract_y
_atom_site_fract_z
_atom_site_U_iso_or_equiv
_atom_site_symmetry_multiplicity
_atom_site_Wyckoff_symbol
_atom_site_occupancy
V1 V 0.0601 0.0 0.09803 0.0079 4 i 1.0
V2 V 0.177996 0.0 0.03135 0.00504 4 i 1.0
V3 V 0.303602 0.0 0.2083 0.00601 4 i 1.0
V4 V 0.412426 0.0 0.12367 0.00618 4 i 1.0
V5 V 0.14721 0.0 0.34975 0.00816 4 i 1.0
V6 V 0.39096 0.0 0.45095 0.00795 4 i 1.0
O7 O 0.0 0.0 0.0 0.0106 2 a 1.0
O8 O 0.0524 0.0 0.2527 0.0155 4 i 1.0
O9 O 0.13786 0.0 0.1712 0.0083 4 i 1.0
O10 O 0.10048 0.0 0.917 0.0086 4 i 1.0
O11 O 0.23238 0.0 0.1214 0.0094 4 i 1.0
O12 O 0.19498 0.0 0.8459 0.0076 4 i 1.0
O13 O 0.33347 0.0 0.0103 0.009 4 i 1.0
O14 O 0.29645 0.0 0.3613 0.0159 4 i 1.0
O15 O 0.3754 0.0 0.26765 0.0072 4 i 1.0
O16 O 0.46491 0.0 0.213 0.0136 4 i 1.0
O17 O 0.42958 0.0 0.9423 0.0076 4 i 1.0
O18 O 0.12501 0.0 0.5278 0.0117 4 i 1.0
O19 O 0.20432 0.0 0.3897 0.0291 4 i 1.0
O20 O 0.37033 0.0 0.6274 0.0135 4 i 1.0
O21 O 0.4489 0.0 0.4776 0.0203 4 i 1.0
Cu22 Cu 0.48593 0.0 0.647 0.0867 4 i 0.514
Cu23 Cu 0.2525 0.0 0.5423 0.067 4 i 0.236

