data_01-089-0100
#Copyright 2021 International Centre for Diffraction Data. All rights reserved.

_audit_creation_date                  2021-12-16
_audit_creation_method                'Generated by PDF-4+ 2022 4.22.0.2'

_chemical_name_systematic             'Vanadium Oxide'
_chemical_formula_moiety              'V6 O13'
_chemical_formula_sum                 'O13 V6'
_chemical_formula_weight              513.64

_cell_length_a                        11.922(2)
_cell_length_b                        3.680(1)
_cell_length_c                        10.138(2)
_cell_angle_alpha                     90
_cell_angle_beta                      100.87(2)
_cell_angle_gamma                     90
_cell_formula_units_Z                 2
_cell_volume                          436.80
_symmetry_cell_setting                monoclinic
_symmetry_space_group_name_H-M        C2/m
_symmetry_Int_Tables_number           12

loop_
_symmetry_equiv_pos_site_id
_symmetry_equiv_pos_as_xyz
1 x,y,z
2 -x,-y,-z
3 x,-y,z
4 -x,y,-z
5 x+1/2,y+1/2,z
6 -x+1/2,-y+1/2,-z
7 x+1/2,-y+1/2,z
8 -x+1/2,y+1/2,-z

loop_
_atom_site_label
_atom_site_type_symbol
_atom_site_fract_x
_atom_site_fract_y
_atom_site_fract_z
_atom_site_B_iso_or_equiv
_atom_site_symmetry_multiplicity
_atom_site_Wyckoff_symbol
_atom_site_occupancy
V1 V 0.3518 0.0 -4.1E-4 0.53 4 i 1.0
V2 V 0.41262 0.0 0.3631 0.301 4 i 1.0
V3 V 0.71322 0.0 0.36513 0.276 4 i 1.0
O4 O 0.17883 0.0 5.2E-4 0.62 4 i 1.0
O5 O 0.88194 0.0 0.38776 0.52 4 i 1.0
O6 O 0.24898 0.0 0.40773 0.47 4 i 1.0
O7 O 0.5 0.0 0.0 0.91 2 b 1.0
O8 O 0.38604 0.0 0.19688 0.72 4 i 1.0
O9 O 0.67817 0.0 0.20062 0.64 4 i 1.0
O10 O 0.56262 0.0 0.40863 0.63 4 i 1.0

