data_01-079-0796
#Copyright 2021 International Centre for Diffraction Data. All rights reserved.

_audit_creation_date                  2021-12-15
_audit_creation_method                'Generated by PDF-4+ 2022 4.22.0.2'

_chemical_name_systematic             'Copper Vanadium Oxide'
_chemical_formula_moiety              'Cu0.261 ( V2 O5 )'
_chemical_formula_sum                 'Cu0.261 O5 V2'
_chemical_formula_weight              198.46

_cell_length_a                        15.2403(2)
_cell_length_b                        3.6145(1)
_cell_length_c                        10.1009(2)
_cell_angle_alpha                     90
_cell_angle_beta                      107.250(1)
_cell_angle_gamma                     90
_cell_formula_units_Z                 6
_cell_volume                          531.39
_symmetry_cell_setting                monoclinic
_symmetry_space_group_name_H-M        C2/m
_symmetry_Int_Tables_number           12

loop_
_symmetry_equiv_pos_site_id
_symmetry_equiv_pos_as_xyz
1 x,y,z
2 -x,-y,-z
3 x,-y,z
4 -x,y,-z
5 x+1/2,y+1/2,z
6 -x+1/2,-y+1/2,-z
7 x+1/2,-y+1/2,z
8 -x+1/2,y+1/2,-z

loop_
_atom_site_label
_atom_site_type_symbol
_atom_site_fract_x
_atom_site_fract_y
_atom_site_fract_z
_atom_site_U_iso_or_equiv
_atom_site_symmetry_multiplicity
_atom_site_Wyckoff_symbol
_atom_site_occupancy
V1 V 0.33494 0.0 0.09616 0.00635 4 i 1.0
V2 V 0.114 0.0 0.11994 0.00785 4 i 1.0
V3 V 0.28681 0.0 0.40681 0.0093 4 i 1.0
O4 O 0.0 0.0 0.0 0.0115 2 a 1.0
O5 O 0.81322 0.0 0.05073 0.00862 4 i 1.0
O6 O 0.63291 0.0 0.08138 0.00753 4 i 1.0
O7 O 0.43403 0.0 0.20721 0.0139 4 i 1.0
O8 O 0.26079 0.0 0.22154 0.00807 4 i 1.0
O9 O 0.09979 0.0 0.27175 0.01512 4 i 1.0
O10 O 0.2452 0.0 0.57583 0.01298 4 i 1.0
O11 O 0.39622 0.0 0.46063 0.02114 4 i 1.0
Cu12 Cu 0.52952 0.0 0.361 0.06749 4 i 0.3915

loop_
_atom_site_aniso_label
_atom_site_aniso_U_11
_atom_site_aniso_U_12
_atom_site_aniso_U_13
_atom_site_aniso_U_22
_atom_site_aniso_U_23
_atom_site_aniso_U_33
V1 0.00759 0.0 0.0026 0.00461 0.0 0.00712
V2 0.01166 0.0 0.00548 0.00457 0.0 0.00891
V3 0.01622 0.0 0.00504 0.00631 0.0 0.00646
O4 0.0069 0.0 -6.0E-4 0.00966 0.0 0.0154
O5 0.0109 0.0 0.0036 0.0054 0.0 0.0099
O6 0.0093 0.0 0.0032 0.0057 0.0 0.00801
O7 0.0097 0.0 -1.0E-4 0.0186 0.0 0.0113
O8 0.009 0.0 0.0026 0.00894 0.0 0.00646
O9 0.0151 0.0 0.0061 0.022 0.0 0.00981
O10 0.0262 0.0 0.00932 0.006 0.0 0.00938
O11 0.0163 0.0 2.0E-4 0.0323 0.0 0.0122
Cu12 0.0297 0.0 -0.019 0.14 0.0 0.016

