data_01-083-6358
#Copyright 2021 International Centre for Diffraction Data. All rights reserved.

_audit_creation_date                  2021-12-16
_audit_creation_method                'Generated by PDF-4+ 2022 4.22.0.2'

_chemical_name_systematic             'Iron Oxide'
_chemical_formula_moiety              'Fe1.95 O3'
_chemical_formula_sum                 'Fe1.95 O3'
_chemical_formula_weight              156.89

_cell_length_a                        7.3951(10)
_cell_length_b                        5.0117(5)
_cell_length_c                        5.4417(7)
_cell_angle_alpha                     90.0
_cell_angle_beta                      95.666(5)
_cell_angle_gamma                     90.0
_cell_formula_units_Z                 4
_cell_volume                          200.70
_symmetry_cell_setting                monoclinic
_symmetry_space_group_name_H-M        I2/a
_symmetry_Int_Tables_number           15

loop_
_symmetry_equiv_pos_site_id
_symmetry_equiv_pos_as_xyz
1 x,y,z
2 -x,-y,-z
3 x+1/2,-y,z
4 -x+1/2,y,-z
5 x+1/2,y+1/2,z+1/2
6 -x+1/2,-y+1/2,-z+1/2
7 x,-y+1/2,z+1/2
8 -x,y+1/2,-z+1/2

loop_
_atom_site_label
_atom_site_type_symbol
_atom_site_fract_x
_atom_site_fract_y
_atom_site_fract_z
_atom_site_U_iso_or_equiv
_atom_site_symmetry_multiplicity
_atom_site_Wyckoff_symbol
_atom_site_occupancy
Fe1 Fe 0.3589 -0.0043 0.2944 0.004 8 f 0.973
O2 O 0.4117 0.8579 0.6327 0.007 8 f 1.0
O3 O 0.25 0.183 0.0 0.007 4 e 1.0

