data_04-021-1831
#Copyright 2021 International Centre for Diffraction Data. All rights reserved.

_audit_creation_date                  2021-12-16
_audit_creation_method                'Generated by PDF-4+ 2022 4.22.0.2'

_chemical_name_systematic             'Iron Oxide'
_chemical_formula_moiety              'Fe2 O3'
_chemical_formula_sum                 'Fe2 O3'
_chemical_formula_weight              159.69

_cell_length_a                        4.823(1)
_cell_length_b                        5.009(1)
_cell_length_c                        7.161(4)
_cell_angle_alpha                     90
_cell_angle_beta                      90
_cell_angle_gamma                     90
_cell_formula_units_Z                 4
_cell_volume                          173.00
_symmetry_cell_setting                orthorhombic
_symmetry_space_group_name_H-M        Pbna
_symmetry_Int_Tables_number           60

loop_
_symmetry_equiv_pos_site_id
_symmetry_equiv_pos_as_xyz
1 x,y,z
2 -x,-y,-z
3 -x+1/2,y+1/2,-z+1/2
4 x+1/2,-y+1/2,z+1/2
5 -x+1/2,-y,z+1/2
6 x+1/2,y,-z+1/2
7 x,-y+1/2,-z
8 -x,y+1/2,z

loop_
_atom_site_label
_atom_site_type_symbol
_atom_site_fract_x
_atom_site_fract_y
_atom_site_fract_z
_atom_site_U_iso_or_equiv
_atom_site_symmetry_multiplicity
_atom_site_Wyckoff_symbol
_atom_site_occupancy
Fe1 Fe 0.7547 0.0323 0.1174 0.04 8 d 1.0
O2 O 0.596 0.112 0.843 0.076 8 d 1.0
O3 O 0.084 0.25 0.0 0.07 4 c 1.0

