data_04-019-9908
#Copyright 2021 International Centre for Diffraction Data. All rights reserved.

_audit_creation_date                  2021-12-16
_audit_creation_method                'Generated by PDF-4+ 2022 4.22.0.2'

_chemical_name_systematic             'Vanadium Iron Oxide'
_chemical_formula_moiety              'V2 Fe O4'
_chemical_formula_sum                 'Fe O4 V2'
_chemical_formula_weight              221.72

_cell_length_a                        5.9307(3)
_cell_length_b                        5.9307(3)
_cell_length_c                        8.5321(2)
_cell_angle_alpha                     90
_cell_angle_beta                      90
_cell_angle_gamma                     90
_cell_formula_units_Z                 4
_cell_volume                          300.10
_symmetry_cell_setting                tetragonal
_symmetry_space_group_name_H-M        I41/amd
_symmetry_Int_Tables_number           141

loop_
_symmetry_equiv_pos_site_id
_symmetry_equiv_pos_as_xyz
1 x,y,z
2 -x,-y,-z
3 -x+1/2,-y,z+1/2
4 x+1/2,y,-z+1/2
5 -y+1/4,x+3/4,z+1/4
6 y+3/4,-x+1/4,-z+3/4
7 y+1/4,-x+1/4,z+3/4
8 -y+3/4,x+3/4,-z+1/4
9 -x+1/2,y,-z+1/2
10 x+1/2,-y,z+1/2
11 x,-y,-z
12 -x,y,z
13 y+1/4,x+3/4,-z+1/4
14 -y+3/4,-x+1/4,z+3/4
15 -y+1/4,-x+1/4,-z+3/4
16 y+3/4,x+3/4,z+1/4
17 x+1/2,y+1/2,z+1/2
18 -x+1/2,-y+1/2,-z+1/2
19 -x,-y+1/2,z
20 x,y+1/2,-z
21 -y+3/4,x+1/4,z+3/4
22 y+1/4,-x+3/4,-z+1/4
23 y+3/4,-x+3/4,z+1/4
24 -y+1/4,x+1/4,-z+3/4
25 -x,y+1/2,-z
26 x,-y+1/2,z
27 x+1/2,-y+1/2,-z+1/2
28 -x+1/2,y+1/2,z+1/2
29 y+3/4,x+1/4,-z+3/4
30 -y+1/4,-x+3/4,z+1/4
31 -y+3/4,-x+3/4,-z+1/4
32 y+1/4,x+1/4,z+3/4

loop_
_atom_site_label
_atom_site_type_symbol
_atom_site_fract_x
_atom_site_fract_y
_atom_site_fract_z
_atom_site_U_iso_or_equiv
_atom_site_symmetry_multiplicity
_atom_site_Wyckoff_symbol
_atom_site_occupancy
Fe1 Fe 0.5 0.25 0.125 0.00281 4 b 1.0
V2 V 0.25 0.75 0.25 0.00216 8 c 1.0
O3 O 0.5 0.98171 0.26522 0.0037 16 h 1.0

loop_
_atom_site_aniso_label
_atom_site_aniso_U_11
_atom_site_aniso_U_12
_atom_site_aniso_U_13
_atom_site_aniso_U_22
_atom_site_aniso_U_23
_atom_site_aniso_U_33
Fe1 0.00291 0.0 0.0 0.00291 0.0 0.00262
V2 0.0021 0.0 -1.9E-4 0.00209 0.0 0.00229
O3 0.0046 0.0 0.0 0.0031 3.9E-4 0.0034

