data_04-014-0715
#Copyright 2021 International Centre for Diffraction Data. All rights reserved.

_audit_creation_date                  2021-12-16
_audit_creation_method                'Generated by PDF-4+ 2022 4.22.0.2'

_chemical_name_systematic             'Copper Vanadium Oxide'
_chemical_formula_moiety              'Cu2 ( V2 O7 )'
_chemical_formula_sum                 'Cu2 O7 V2'
_chemical_formula_weight              340.97

_cell_length_a                        20.68(1)
_cell_length_b                        8.411(5)
_cell_length_c                        6.448(5)
_cell_angle_alpha                     90
_cell_angle_beta                      90
_cell_angle_gamma                     90
_cell_formula_units_Z                 8
_cell_volume                          1121.56
_symmetry_cell_setting                orthorhombic
_symmetry_space_group_name_H-M        Fdd2
_symmetry_Int_Tables_number           43

loop_
_symmetry_equiv_pos_site_id
_symmetry_equiv_pos_as_xyz
1 x,y,z
2 -x,-y,z
3 -x+1/4,y+1/4,z+1/4
4 x+1/4,-y+1/4,z+1/4
5 x,y+1/2,z+1/2
6 -x,-y+1/2,z+1/2
7 -x+1/4,y+3/4,z+3/4
8 x+1/4,-y+3/4,z+3/4
9 x+1/2,y,z+1/2
10 -x+1/2,-y,z+1/2
11 -x+3/4,y+1/4,z+3/4
12 x+3/4,-y+1/4,z+3/4
13 x+1/2,y+1/2,z
14 -x+1/2,-y+1/2,z
15 -x+3/4,y+3/4,z+1/4
16 x+3/4,-y+3/4,z+1/4

loop_
_atom_site_label
_atom_site_type_symbol
_atom_site_fract_x
_atom_site_fract_y
_atom_site_fract_z
_atom_site_B_iso_or_equiv
_atom_site_symmetry_multiplicity
_atom_site_Wyckoff_symbol
_atom_site_occupancy
Cu1 Cu 0.166 0.364 0.75 1.17 16 b 1.0
V2 V 0.199 0.405 0.234 0.74 16 b 1.0
O3 O 0.25 0.25 0.152 2.58 8 a 1.0
O4 O 0.244 0.56 0.279 1.89 16 b 1.0
O5 O 0.144 0.438 0.028 1.03 16 b 1.0
O6 O 0.162 0.339 0.461 1.9 16 b 1.0

