data_V_O2_-_01-086-2928
#Copyright 2019 International Centre for Diffraction Data. All rights reserved.

_audit_creation_date                  2019-11-12
_audit_creation_method                'Generated by PDF-4+ 2020 4.20.0.1'

_chemical_name_systematic             'Vanadium Oxide'
_chemical_formula_moiety              'V O2'
_chemical_formula_sum                 'O2 V'
_chemical_formula_weight              82.94

_cell_length_a                        9.0927(8)
_cell_length_b                        5.78191(13)
_cell_length_c                        4.54147(35)
_cell_angle_alpha                     90.0000(16)
_cell_angle_beta                      90.9247(16)
_cell_angle_gamma                     90.0000(16)
_cell_volume                          238.73
_cell_formula_units_Z                 8.00
_symmetry_cell_setting                monoclinic
_symmetry_space_group_name_H-M        C2/m
_symmetry_Int_Tables_number           12

loop_
_symmetry_equiv_pos_site_id
_symmetry_equiv_pos_as_xyz
1 x,y,z
2 -x,-y,-z
3 x,-y,z
4 -x,y,-z
5 x+1/2,y+1/2,z
6 -x+1/2,-y+1/2,-z
7 x+1/2,-y+1/2,z
8 -x+1/2,y+1/2,-z

loop_
_atom_site_label
_atom_site_type_symbol
_atom_site_fract_x
_atom_site_fract_y
_atom_site_fract_z
_atom_site_U_iso_or_equiv
_atom_site_symmetry_multiplicity
_atom_site_Wyckoff_symbol
_atom_site_occupancy
V1 V 0.0 0.72674 0.0 0.0274 4 g 1.0
V2 V 0.22466 0.0 0.51411 0.0124 4 i 1.0
O3 O 0.13823 0.2564 0.30105 0.025 8 j 1.0
O4 O 0.38306 0.0 0.18123 0.028 4 i 1.0
O5 O 0.10489 0.0 0.79996 0.009 4 i 1.0

