data_V2_O5_-_04-007-2512
#Copyright 2019 International Centre for Diffraction Data. All rights reserved.

_audit_creation_date                  2019-11-12
_audit_creation_method                'Generated by PDF-4+ 2020 4.20.0.1'

_chemical_name_systematic             'Vanadium Oxide'
_chemical_name_common                 '\g`-V2 O5, \g-V2 O5'
_chemical_formula_moiety              'V2 O5'
_chemical_formula_sum                 'O5 V2'
_chemical_formula_weight              181.88

_cell_length_a                        9.9461(3)
_cell_length_b                        3.5852(1)
_cell_length_c                        10.0423(4)
_cell_angle_alpha                     90
_cell_angle_beta                      90
_cell_angle_gamma                     90
_cell_volume                          358.10
_cell_formula_units_Z                 4.00
_symmetry_cell_setting                orthorhombic
_symmetry_space_group_name_H-M        Pnma
_symmetry_Int_Tables_number           62

loop_
_symmetry_equiv_pos_site_id
_symmetry_equiv_pos_as_xyz
1 x,y,z
2 -x,-y,-z
3 x+1/2,-y+1/2,-z+1/2
4 -x+1/2,y+1/2,z+1/2
5 -x,y+1/2,-z
6 x,-y+1/2,z
7 -x+1/2,-y,z+1/2
8 x+1/2,y,-z+1/2

loop_
_atom_site_label
_atom_site_type_symbol
_atom_site_fract_x
_atom_site_fract_y
_atom_site_fract_z
_atom_site_B_iso_or_equiv
_atom_site_symmetry_multiplicity
_atom_site_Wyckoff_symbol
_atom_site_occupancy
V1 V 0.3758 0.25 0.5164 1.24 4 c 1.0
V2 V 0.0699 0.25 0.6015 1.5 4 c 1.0
O3 O 0.2521 0.25 0.6369 3.1 4 c 1.0
O4 O 0.4997 0.25 0.7571 1.5 4 c 1.0
O5 O 0.2934 0.25 0.3856 4.4 4 c 1.0
O6 O 0.5676 0.25 0.4616 1.6 4 c 1.0
O7 O -0.0675 0.25 0.46 3.0 4 c 1.0

