data_V7_O3_-_04-008-6619
#Copyright 2019 International Centre for Diffraction Data. All rights reserved.

_audit_creation_date                  2019-11-12
_audit_creation_method                'Generated by PDF-4+ 2020 4.20.0.1'

_chemical_name_systematic             'Vanadium Oxide'
_chemical_name_common                 '\g-V7 O3'
_chemical_formula_moiety              'V7 O3'
_chemical_formula_sum                 'O3 V7'
_chemical_formula_weight              404.59

_cell_length_a                        9.5
_cell_length_b                        2.9
_cell_length_c                        7.7
_cell_angle_alpha                     90
_cell_angle_beta                      90.8
_cell_angle_gamma                     90
_cell_volume                          212.11
_cell_formula_units_Z                 2.00
_symmetry_cell_setting                monoclinic
_symmetry_space_group_name_H-M        C2/m
_symmetry_Int_Tables_number           12

loop_
_symmetry_equiv_pos_site_id
_symmetry_equiv_pos_as_xyz
1 x,y,z
2 -x,-y,-z
3 x,-y,z
4 -x,y,-z
5 x+1/2,y+1/2,z
6 -x+1/2,-y+1/2,-z
7 x+1/2,-y+1/2,z
8 -x+1/2,y+1/2,-z

loop_
_atom_site_label
_atom_site_type_symbol
_atom_site_fract_x
_atom_site_fract_y
_atom_site_fract_z
_atom_site_U_iso_or_equiv
_atom_site_symmetry_multiplicity
_atom_site_Wyckoff_symbol
_atom_site_occupancy
V1 V 0.0 0.0 0.0 . 2 a 1.0
O2 O 0.0 0.5 0.5 . 2 d 1.0
V3 V 0.129 0.0 0.388 . 4 i 1.0
V4 V 0.418 0.0 0.251 . 4 i 1.0
O5 O 0.212 0.0 0.638 . 4 i 1.0
V6 V 0.705 0.0 0.115 . 4 i 1.0

