data_V2_Mn_O6_-_04-014-5087
#Copyright 2019 International Centre for Diffraction Data. All rights reserved.

_audit_creation_date                  2019-11-12
_audit_creation_method                'Generated by PDF-4+ 2020 4.20.0.1'

_chemical_name_systematic             'Vanadium Manganese Oxide'
_chemical_formula_moiety              'V2 Mn O6'
_chemical_formula_sum                 'Mn O6 V2'
_chemical_formula_weight              252.82

_cell_length_a                        9.289(1)
_cell_length_b                        3.5343(5)
_cell_length_c                        6.737(1)
_cell_angle_alpha                     90.00(1)
_cell_angle_beta                      113.00(1)
_cell_angle_gamma                     90.00(1)
_cell_volume                          203.59
_cell_formula_units_Z                 2.00
_symmetry_cell_setting                monoclinic
_symmetry_space_group_name_H-M        C2/m
_symmetry_Int_Tables_number           12

loop_
_symmetry_equiv_pos_site_id
_symmetry_equiv_pos_as_xyz
1 x,y,z
2 -x,-y,-z
3 x,-y,z
4 -x,y,-z
5 x+1/2,y+1/2,z
6 -x+1/2,-y+1/2,-z
7 x+1/2,-y+1/2,z
8 -x+1/2,y+1/2,-z

loop_
_atom_site_label
_atom_site_type_symbol
_atom_site_fract_x
_atom_site_fract_y
_atom_site_fract_z
_atom_site_U_iso_or_equiv
_atom_site_symmetry_multiplicity
_atom_site_Wyckoff_symbol
_atom_site_occupancy
Mn1 Mn 0.0 0.0 0.0 0.0029 2 a 1.0
V2 V 0.309 0.5 0.365 0.0029 4 i 1.0
O3 O 0.1563 0.5 0.1137 0.0049 4 i 1.0
O4 O 0.4684 0.5 0.2902 0.0048 4 i 1.0
O5 O 0.194 0.5 0.5653 0.0065 4 i 1.0

