data_Mn3_O4_-_01-071-6262
#Copyright 2019 International Centre for Diffraction Data. All rights reserved.

_audit_creation_date                  2019-11-12
_audit_creation_method                'Generated by PDF-4+ 2020 4.20.0.1'

_chemical_name_systematic             'Manganese Oxide'
_chemical_name_common                 'dimanganese(III) manganese oxide, hausmannite low'
_chemical_formula_moiety              'Mn3 O4'
_chemical_formula_sum                 'Mn3 O4'
_chemical_formula_weight              228.81

_cell_length_a                        5.7574(4)
_cell_length_b                        5.7574(4)
_cell_length_c                        9.4239(9)
_cell_angle_alpha                     90
_cell_angle_beta                      90
_cell_angle_gamma                     90
_cell_volume                          312.38
_cell_formula_units_Z                 4.00
_symmetry_cell_setting                tetragonal
_symmetry_space_group_name_H-M        I41/amd
_symmetry_Int_Tables_number           141

loop_
_symmetry_equiv_pos_site_id
_symmetry_equiv_pos_as_xyz
1 x,y,z
2 -x,-y,-z
3 -x+1/2,-y,z+1/2
4 x+1/2,y,-z+1/2
5 -y+1/4,x+3/4,z+1/4
6 y+3/4,-x+1/4,-z+3/4
7 y+1/4,-x+1/4,z+3/4
8 -y+3/4,x+3/4,-z+1/4
9 -x+1/2,y,-z+1/2
10 x+1/2,-y,z+1/2
11 x,-y,-z
12 -x,y,z
13 y+1/4,x+3/4,-z+1/4
14 -y+3/4,-x+1/4,z+3/4
15 -y+1/4,-x+1/4,-z+3/4
16 y+3/4,x+3/4,z+1/4
17 x+1/2,y+1/2,z+1/2
18 -x+1/2,-y+1/2,-z+1/2
19 -x,-y+1/2,z
20 x,y+1/2,-z
21 -y+3/4,x+1/4,z+3/4
22 y+1/4,-x+3/4,-z+1/4
23 y+3/4,-x+3/4,z+1/4
24 -y+1/4,x+1/4,-z+3/4
25 -x,y+1/2,-z
26 x,-y+1/2,z
27 x+1/2,-y+1/2,-z+1/2
28 -x+1/2,y+1/2,z+1/2
29 y+3/4,x+1/4,-z+3/4
30 -y+1/4,-x+3/4,z+1/4
31 -y+3/4,-x+3/4,-z+1/4
32 y+1/4,x+1/4,z+3/4

loop_
_atom_site_label
_atom_site_type_symbol
_atom_site_fract_x
_atom_site_fract_y
_atom_site_fract_z
_atom_site_B_iso_or_equiv
_atom_site_symmetry_multiplicity
_atom_site_Wyckoff_symbol
_atom_site_occupancy
Mn1 Mn 0.0 0.25 0.875 0.37268 4 a 1.0
Mn2 Mn 0.0 0.5 0.5 0.2424 8 d 1.0
O3 O 0.0 0.4722 0.2589 0.32438 16 h 1.0

loop_
_atom_site_aniso_label
_atom_site_aniso_B_11
_atom_site_aniso_B_12
_atom_site_aniso_B_13
_atom_site_aniso_B_22
_atom_site_aniso_B_23
_atom_site_aniso_B_33
Mn1 0.477267 0.0 0.0 0.477267 0.0 0.16352
Mn2 0.309758 0.0 0.0 0.248604 -0.0587889 0.168838
O3 0.401489 0.0 0.0 0.361606 0.0609663 0.210051

