data_Nb_(_V_O4_)_O_-_04-023-0598
#Copyright 2019 International Centre for Diffraction Data. All rights reserved.

_audit_creation_date                  2019-11-12
_audit_creation_method                'Generated by PDF-4+ 2020 4.20.0.1'

_chemical_name_systematic             'Niobium Oxide Vanadate'
_chemical_formula_moiety              'Nb ( V O4 ) O'
_chemical_formula_sum                 'Nb O5 V'
_chemical_formula_weight              223.84

_cell_length_a                        11.8453(2)
_cell_length_b                        5.5126(3)
_cell_length_c                        6.9212(2)
_cell_angle_alpha                     90
_cell_angle_beta                      90
_cell_angle_gamma                     90
_cell_volume                          451.94
_cell_formula_units_Z                 4.00
_symmetry_cell_setting                orthorhombic
_symmetry_space_group_name_H-M        Pnma
_symmetry_Int_Tables_number           62

loop_
_symmetry_equiv_pos_site_id
_symmetry_equiv_pos_as_xyz
1 x,y,z
2 -x,-y,-z
3 x+1/2,-y+1/2,-z+1/2
4 -x+1/2,y+1/2,z+1/2
5 -x,y+1/2,-z
6 x,-y+1/2,z
7 -x+1/2,-y,z+1/2
8 x+1/2,y,-z+1/2

loop_
_atom_site_label
_atom_site_type_symbol
_atom_site_fract_x
_atom_site_fract_y
_atom_site_fract_z
_atom_site_B_iso_or_equiv
_atom_site_symmetry_multiplicity
_atom_site_Wyckoff_symbol
_atom_site_occupancy
Nb1 Nb 0.06112 0.25 0.34248 1.806 4 c 1.0
V2 V 0.34542 0.25 0.53581 0.116 4 c 1.0
O3 O 0.0 0.0 0.5 1.172 4 b 1.0
O4 O 0.13265 -0.0164 0.12827 1.512 8 d 1.0
O5 O 0.19384 0.25 0.50204 0.17 4 c 1.0
O6 O 0.41039 0.25 0.33407 1.777 4 c 1.0

