data_V3_O7_-_00-027-0940
#Copyright 2019 International Centre for Diffraction Data. All rights reserved.

_audit_creation_date                  2019-11-12
_audit_creation_method                'Generated by PDF-4+ 2020 4.20.0.1'

_chemical_name_systematic             'Vanadium Oxide'
_chemical_formula_moiety              'V3 O7'
_chemical_formula_sum                 'O7 V3'
_chemical_formula_weight              264.82

_cell_length_a                        21.921(3)
_cell_length_b                        3.679(1)
_cell_length_c                        18.341(2)
_cell_angle_alpha                     90
_cell_angle_beta                      95.61(1)
_cell_angle_gamma                     90
_cell_volume                          1472.07
_cell_formula_units_Z                 12.00
_symmetry_cell_setting                monoclinic
_symmetry_space_group_name_H-M        C12/c1
_symmetry_Int_Tables_number           15

loop_
_symmetry_equiv_pos_site_id
_symmetry_equiv_pos_as_xyz
1 x,y,z
2 -x,-y,-z
3 -x,y,-z+1/2
4 x,-y,z+1/2
5 x+1/2,y+1/2,z
6 -x+1/2,-y+1/2,-z
7 -x+1/2,y+1/2,-z+1/2
8 x+1/2,-y+1/2,z+1/2

loop_
_atom_site_label
_atom_site_type_symbol
_atom_site_fract_x
_atom_site_fract_y
_atom_site_fract_z
_atom_site_B_iso_or_equiv
_atom_site_symmetry_multiplicity
_atom_site_Wyckoff_symbol
_atom_site_occupancy
V1 V 0.0 0.81087 0.75 0.80331 4 e 1.0
V2 V 0.19549 0.82011 0.9414 0.39788 8 f 1.0
V3 V 0.03054 0.74814 0.94466 0.4235 8 f 1.0
V4 V 0.16289 0.74506 0.75467 0.40865 8 f 1.0
V5 V 0.32839 0.74538 0.87378 0.48033 8 f 1.0
O6 O 0.0 0.2507 0.75 1.07469 4 e 1.0
O7 O 0.19225 0.2588 0.93942 0.81762 8 f 1.0
O8 O 0.02324 0.2502 0.97363 0.75282 8 f 1.0
O9 O 0.32613 0.7456 0.7674 0.83551 8 f 1.0
O10 O 0.31591 0.2463 0.84644 0.70444 8 f 1.0
O11 O 0.20443 0.7473 0.83572 0.8348 8 f 1.0
O12 O -0.00324 0.7516 0.85923 0.85601 8 f 1.0
O13 O 0.39756 0.7436 0.90628 1.23019 8 f 1.0
O14 O 0.08991 0.7491 0.76677 1.15834 8 f 1.0
O15 O 0.10538 0.7557 0.93727 0.96657 8 f 1.0
O16 O 0.28669 0.7522 0.95186 0.54003 8 f 1.0

loop_
_atom_site_aniso_label
_atom_site_aniso_B_11
_atom_site_aniso_B_12
_atom_site_aniso_B_13
_atom_site_aniso_B_22
_atom_site_aniso_B_23
_atom_site_aniso_B_33
V1 0.475939 0.0 0.0477854 0.939334 0.0 0.989953
V2 0.361714 0.00963135 0.0477854 0.203567 0.00805842 0.62824
V3 0.323639 -0.0128418 0.127428 0.296147 -0.00805842 0.666315
V4 0.456901 -0.00963135 0.0637139 0.296689 -0.00537228 0.475939
V5 0.552089 0.00963135 0.159285 0.338377 0.0107446 0.571127
O6 1.40878 0.0 0.0955708 0.53274 0.0 1.27552
O7 0.913803 -0.093103 0.0637139 0.255001 0.0510366 1.27552
O8 0.761502 -0.0738403 0.350426 0.174873 -0.0429782 1.3707
O9 1.56108 0.121997 0.238927 0.26637 0.0349198 0.70439
O10 1.04707 0.0706299 0.382283 0.208981 0.0268614 0.913803
O11 0.894765 0.0128418 -0.0796423 0.739556 0.136993 0.837653
O12 0.647277 -0.250415 0.0477854 0.828346 -0.0134307 1.08514
O13 0.609202 0.0481567 0.0318569 1.42876 -0.0429782 1.63723
O14 0.494977 -0.00963135 0.143356 1.21599 -0.110132 1.77049
O15 0.361714 -0.0224731 0.175213 0.608537 0.0590951 1.94183
O16 0.342676 -0.125208 0.0637139 0.69083 0.244439 0.590164

