data_V2_Mn2_O7_-_04-009-0571
#Copyright 2019 International Centre for Diffraction Data. All rights reserved.

_audit_creation_date                  2019-11-12
_audit_creation_method                'Generated by PDF-4+ 2020 4.20.0.1'

_chemical_name_systematic             'Vanadium Manganese Oxide'
_chemical_formula_moiety              'V2 Mn2 O7'
_chemical_formula_sum                 'Mn2 O7 V2'
_chemical_formula_weight              323.75

_cell_length_a                        6.879(2)
_cell_length_b                        7.973(2)
_cell_length_c                        10.948(3)
_cell_angle_alpha                     87.92(3)
_cell_angle_beta                      72.00(2)
_cell_angle_gamma                     83.29(3)
_cell_volume                          567.16
_cell_formula_units_Z                 4.00
_symmetry_cell_setting                triclinic
_symmetry_space_group_name_H-M        P-1
_symmetry_Int_Tables_number           2

loop_
_symmetry_equiv_pos_site_id
_symmetry_equiv_pos_as_xyz
1 x,y,z
2 -x,-y,-z

loop_
_atom_site_label
_atom_site_type_symbol
_atom_site_fract_x
_atom_site_fract_y
_atom_site_fract_z
_atom_site_U_iso_or_equiv
_atom_site_symmetry_multiplicity
_atom_site_Wyckoff_symbol
_atom_site_occupancy
O1 O 0.0094 0.0189 0.7533 . 2 i 1.0
O2 O 0.0468 0.3559 0.7052 . 2 i 1.0
O3 O 0.0532 0.321 0.2135 . 2 i 1.0
V4 V 0.0657 0.1461 0.1298 . 2 i 1.0
V5 V 0.0673 0.1684 0.6331 . 2 i 1.0
Mn6 Mn 0.083 0.5966 0.098 . 2 i 1.0
O7 O 0.0964 0.8177 0.4566 . 2 i 1.0
Mn8 Mn 0.0986 0.5943 0.594 . 2 i 1.0
O9 O 0.2012 0.4112 0.4353 . 2 i 1.0
O10 O 0.3112 0.0845 0.0359 . 2 i 1.0
O11 O 0.3174 0.1101 0.5387 . 2 i 1.0
O12 O 0.3773 0.6716 0.0731 . 2 i 1.0
V13 V 0.4256 0.2868 0.3592 . 2 i 1.0
O14 O 0.4372 0.095 0.2876 . 2 i 1.0
O15 O 0.4746 0.2908 0.7238 . 2 i 1.0
O16 O 0.503 0.3851 0.2023 . 2 i 1.0
V17 V 0.5538 0.5954 0.1498 . 2 i 1.0
Mn18 Mn 0.5799 0.1428 0.0792 . 2 i 1.0
Mn19 Mn 0.6034 0.1137 0.5838 . 2 i 1.0
O20 O 0.6194 0.3075 0.4196 . 2 i 1.0
O21 O 0.8059 0.5799 0.0546 . 2 i 1.0
O22 O 0.9004 0.1778 0.0432 . 2 i 1.0

