data_Nb10.7_V2.38_O32.7_-_04-017-0387
#Copyright 2019 International Centre for Diffraction Data. All rights reserved.

_audit_creation_date                  2019-11-12
_audit_creation_method                'Generated by PDF-4+ 2020 4.20.0.1'

_chemical_name_systematic             'Niobium Vanadium Oxide'
_chemical_formula_moiety              'Nb10.7 V2.38 O32.7'
_chemical_formula_sum                 'Nb10.7 O32.7 V2.38'
_chemical_formula_weight              1638.51

_cell_length_a                        17.3549(5)
_cell_length_b                        17.6977(5)
_cell_length_c                        3.97052(10)
_cell_angle_alpha                     90
_cell_angle_beta                      90
_cell_angle_gamma                     90
_cell_volume                          1219.51
_cell_formula_units_Z                 2.00
_symmetry_cell_setting                orthorhombic
_symmetry_space_group_name_H-M        Cmmm
_symmetry_Int_Tables_number           65

loop_
_symmetry_equiv_pos_site_id
_symmetry_equiv_pos_as_xyz
1 x,y,z
2 -x,-y,-z
3 -x,-y,z
4 x,y,-z
5 x,-y,-z
6 -x,y,z
7 -x,y,-z
8 x,-y,z
9 x+1/2,y+1/2,z
10 -x+1/2,-y+1/2,-z
11 -x+1/2,-y+1/2,z
12 x+1/2,y+1/2,-z
13 x+1/2,-y+1/2,-z
14 -x+1/2,y+1/2,z
15 -x+1/2,y+1/2,-z
16 x+1/2,-y+1/2,z

loop_
_atom_site_label
_atom_site_type_symbol
_atom_site_fract_x
_atom_site_fract_y
_atom_site_fract_z
_atom_site_U_iso_or_equiv
_atom_site_symmetry_multiplicity
_atom_site_Wyckoff_symbol
_atom_site_occupancy
Nb1 Nb 0.0 0.0 0.0 0.0281 2 a 0.905
Nb2 Nb 0.0 0.67085 0.0 0.0248 4 i 0.935
Nb3 Nb 0.18456 0.39023 0.0 0.0257 8 p 0.98
Nb4 Nb 0.11383 0.81845 0.0692 0.0164 16 r 0.5
V5 V 0.5 0.0 0.11 0.0122 4 l 0.5
V6 V 0.2621 0.0 0.5 0.0122 4 h 0.345
V7 V 0.1039 0.0705 0.5 0.0122 8 q 0.173
O8 O 0.3176 0.1019 0.5 0.0158 8 q 1.0
O9 O 0.6117 0.6771 0.5 0.0158 8 q 1.0
O10 O 0.123 0.2914 0.0 0.0158 8 p 1.0
O11 O 0.068 0.5727 0.0 0.0158 8 p 1.0
O12 O 0.2734 0.3339 0.0 0.0158 8 p 1.0
O13 O 0.0792 0.9212 0.0 0.0158 8 p 1.0
O14 O 0.0 0.3235 0.5 0.0158 4 j 1.0
O15 O 0.0 0.2052 0.0 0.0158 4 i 1.0
O16 O 0.7039 0.0 0.0 0.0158 4 g 1.0
O17 O 0.0 0.0 0.5 0.0158 2 d 1.0
O18 O 0.5 0.0 0.5 0.0158 2 c 1.0
O19 O 0.1695 0.0 0.5 0.0158 4 h 0.345

