data_Nb0.05_V0.95_O2_-_04-008-3578
#Copyright 2019 International Centre for Diffraction Data. All rights reserved.

_audit_creation_date                  2019-11-12
_audit_creation_method                'Generated by PDF-4+ 2020 4.20.0.1'

_chemical_name_systematic             'Niobium Vanadium Oxide'
_chemical_formula_moiety              'Nb0.05 V0.95 O2'
_chemical_formula_sum                 'Nb0.05 O2 V0.95'
_chemical_formula_weight              85.04

_cell_length_a                        5.3855
_cell_length_b                        4.53
_cell_length_c                        5.396
_cell_angle_alpha                     90
_cell_angle_beta                      115.175
_cell_angle_gamma                     90
_cell_volume                          119.14
_cell_formula_units_Z                 4.00
_symmetry_cell_setting                monoclinic
_symmetry_space_group_name_H-M        P21/c
_symmetry_Int_Tables_number           14

loop_
_symmetry_equiv_pos_site_id
_symmetry_equiv_pos_as_xyz
1 x,y,z
2 -x,-y,-z
3 -x,y+1/2,-z+1/2
4 x,-y+1/2,z+1/2

loop_
_atom_site_label
_atom_site_type_symbol
_atom_site_fract_x
_atom_site_fract_y
_atom_site_fract_z
_atom_site_U_iso_or_equiv
_atom_site_symmetry_multiplicity
_atom_site_Wyckoff_symbol
_atom_site_occupancy
O1 O 0.084 0.265 0.4 . 4 e 1.0
O2 O 0.606 0.21 0.403 . 4 e 1.0
V3 V 0.2597 0.018 0.2915 . 4 e 0.95
Nb4 Nb 0.2597 0.018 0.2915 . 4 e 0.05

