data_V3_O5_-_04-004-7808
#Copyright 2019 International Centre for Diffraction Data. All rights reserved.

_audit_creation_date                  2019-11-12
_audit_creation_method                'Generated by PDF-4+ 2020 4.20.0.1'

_chemical_name_systematic             'Vanadium Oxide'
_chemical_formula_moiety              'V3 O5'
_chemical_formula_sum                 'O5 V3'
_chemical_formula_weight              232.82

_cell_length_a                        9.857
_cell_length_b                        5.039
_cell_length_c                        6.989
_cell_angle_alpha                     90
_cell_angle_beta                      109.47
_cell_angle_gamma                     90
_cell_volume                          327.29
_cell_formula_units_Z                 4.00
_symmetry_cell_setting                monoclinic
_symmetry_space_group_name_H-M        P2/c
_symmetry_Int_Tables_number           13

loop_
_symmetry_equiv_pos_site_id
_symmetry_equiv_pos_as_xyz
1 x,y,z
2 -x,-y,-z
3 -x,y,-z+1/2
4 x,-y,z+1/2

loop_
_atom_site_label
_atom_site_type_symbol
_atom_site_fract_x
_atom_site_fract_y
_atom_site_fract_z
_atom_site_U_iso_or_equiv
_atom_site_symmetry_multiplicity
_atom_site_Wyckoff_symbol
_atom_site_occupancy
O1 O 0.07895 0.65877 0.13658 . 4 g 1.0
V2 V 0.12911 0.49659 0.40864 . 4 g 1.0
O3 O 0.20017 0.14739 0.03809 . 4 g 1.0
O4 O 0.31332 0.34014 0.47371 . 4 g 1.0
V5 V 0.36784 0.00626 0.08927 . 4 g 1.0
O6 O 0.58201 0.15179 0.63923 . 4 g 1.0
O7 O 0.5 0.29721 0.25 . 2 f 1.0
O8 O 0.0 0.18517 0.25 . 2 e 1.0
V9 V 0.5 0.5 0.0 . 2 b 1.0
V10 V 0.0 0.0 0.0 . 2 a 1.0

