data_Nb12_O29_-_01-075-2948
#Copyright 2019 International Centre for Diffraction Data. All rights reserved.

_audit_creation_date                  2019-11-12
_audit_creation_method                'Generated by PDF-4+ 2020 4.20.0.1'

_chemical_name_systematic             'Niobium Oxide'
_chemical_formula_moiety              'Nb12 O29'
_chemical_formula_sum                 'Nb12 O29'
_chemical_formula_weight              1578.85

_cell_length_a                        15.695(1)
_cell_length_b                        3.8310(3)
_cell_length_c                        20.723(2)
_cell_angle_alpha                     90.000(5)
_cell_angle_beta                      113.103(5)
_cell_angle_gamma                     90.000(5)
_cell_volume                          1146.09
_cell_formula_units_Z                 2.00
_symmetry_cell_setting                monoclinic
_symmetry_space_group_name_H-M        A2/m
_symmetry_Int_Tables_number           12

loop_
_symmetry_equiv_pos_site_id
_symmetry_equiv_pos_as_xyz
1 x,y,z
2 -x,-y,-z
3 x,-y,z
4 -x,y,-z
5 x,y+1/2,z+1/2
6 -x,-y+1/2,-z+1/2
7 x,-y+1/2,z+1/2
8 -x,y+1/2,-z+1/2

loop_
_atom_site_label
_atom_site_type_symbol
_atom_site_fract_x
_atom_site_fract_y
_atom_site_fract_z
_atom_site_U_iso_or_equiv
_atom_site_symmetry_multiplicity
_atom_site_Wyckoff_symbol
_atom_site_occupancy
Nb1 Nb 0.1004 0.0 0.0689 0.013 4 i 1.0
Nb2 Nb 0.0997 0.0 0.6996 0.013 4 i 1.0
Nb3 Nb 0.0985 0.0 0.8822 0.013 4 i 1.0
Nb4 Nb 0.373 0.0 0.1455 0.013 4 i 1.0
Nb5 Nb 0.367 0.0 0.7746 0.013 4 i 1.0
Nb6 Nb 0.365 0.0 0.958 0.013 4 i 1.0
O7 O 0.5 0.0 0.0 0.011 2 d 1.0
O8 O 0.068 0.0 0.1626 0.011 4 i 1.0
O9 O 0.06 0.0 0.3665 0.011 4 i 1.0
O10 O 0.08 0.0 0.5881 0.011 4 i 1.0
O11 O 0.071 0.0 0.7724 0.011 4 i 1.0
O12 O 0.072 0.0 0.9783 0.011 4 i 1.0
O13 O 0.227 0.0 0.1027 0.011 4 i 1.0
O14 O 0.223 0.0 0.7299 0.011 4 i 1.0
O15 O 0.212 0.0 0.9186 0.011 4 i 1.0
O16 O 0.36 0.0 0.0541 0.011 4 i 1.0
O17 O 0.362 0.0 0.2522 0.011 4 i 1.0
O18 O 0.355 0.0 0.459 0.011 4 i 1.0
O19 O 0.362 0.0 0.664 0.011 4 i 1.0
O20 O 0.365 0.0 0.8651 0.011 4 i 1.0
O21 O 0.495 0.0 0.1893 0.011 4 i 1.0

