data_Mn3_O4_-_04-021-5414
#Copyright 2019 International Centre for Diffraction Data. All rights reserved.

_audit_creation_date                  2019-11-12
_audit_creation_method                'Generated by PDF-4+ 2020 4.20.0.1'

_chemical_name_systematic             'Manganese Oxide'
_chemical_formula_moiety              'Mn3 O4'
_chemical_formula_sum                 'Mn3 O4'
_chemical_formula_weight              228.81

_cell_length_a                        8.11602(5)
_cell_length_b                        8.16717(5)
_cell_length_c                        9.44209(5)
_cell_angle_alpha                     90
_cell_angle_beta                      90
_cell_angle_gamma                     90
_cell_volume                          625.87
_cell_formula_units_Z                 8.00
_symmetry_cell_setting                orthorhombic
_symmetry_space_group_name_H-M        Fddd
_symmetry_Int_Tables_number           70

loop_
_symmetry_equiv_pos_site_id
_symmetry_equiv_pos_as_xyz
1 x,y,z
2 -x,-y,-z
3 -x+3/4,-y+3/4,z
4 x+1/4,y+1/4,-z
5 -x+3/4,y,-z+3/4
6 x+1/4,-y,z+1/4
7 x,-y+3/4,-z+3/4
8 -x,y+1/4,z+1/4
9 x,y+1/2,z+1/2
10 -x,-y+1/2,-z+1/2
11 -x+3/4,-y+1/4,z+1/2
12 x+1/4,y+3/4,-z+1/2
13 -x+3/4,y+1/2,-z+1/4
14 x+1/4,-y+1/2,z+3/4
15 x,-y+1/4,-z+1/4
16 -x,y+3/4,z+3/4
17 x+1/2,y,z+1/2
18 -x+1/2,-y,-z+1/2
19 -x+1/4,-y+3/4,z+1/2
20 x+3/4,y+1/4,-z+1/2
21 -x+1/4,y,-z+1/4
22 x+3/4,-y,z+3/4
23 x+1/2,-y+3/4,-z+1/4
24 -x+1/2,y+1/4,z+3/4
25 x+1/2,y+1/2,z
26 -x+1/2,-y+1/2,-z
27 -x+1/4,-y+1/4,z
28 x+3/4,y+3/4,-z
29 -x+1/4,y+1/2,-z+3/4
30 x+3/4,-y+1/2,z+1/4
31 x+1/2,-y+1/4,-z+3/4
32 -x+1/2,y+3/4,z+1/4

loop_
_atom_site_label
_atom_site_type_symbol
_atom_site_fract_x
_atom_site_fract_y
_atom_site_fract_z
_atom_site_U_iso_or_equiv
_atom_site_symmetry_multiplicity
_atom_site_Wyckoff_symbol
_atom_site_occupancy
Mn1 Mn 0.125 0.125 0.125 0.0125 8 a 1.0
Mn2 Mn 0.5 0.5 0.5 0.0121 16 d 1.0
O3 O 0.4871 0.4869 0.2585 0.0145 32 h 1.0

