data_Mn2_O3_-_04-005-4361
#Copyright 2019 International Centre for Diffraction Data. All rights reserved.

_audit_creation_date                  2019-11-12
_audit_creation_method                'Generated by PDF-4+ 2020 4.20.0.1'

_chemical_name_systematic             'Manganese Oxide'
_chemical_name_common                 'manganese(III) oxide, bixbyite, \a-Mn2 O3'
_chemical_formula_moiety              'Mn2 O3'
_chemical_formula_sum                 'Mn2 O3'
_chemical_formula_weight              157.87

_cell_length_a                        9.4118(8)
_cell_length_b                        9.4177(7)
_cell_length_c                        9.4233(7)
_cell_angle_alpha                     90
_cell_angle_beta                      90
_cell_angle_gamma                     90
_cell_volume                          835.26
_cell_formula_units_Z                 16.00
_symmetry_cell_setting                orthorhombic
_symmetry_space_group_name_H-M        Pbca
_symmetry_Int_Tables_number           61

loop_
_symmetry_equiv_pos_site_id
_symmetry_equiv_pos_as_xyz
1 x,y,z
2 -x,-y,-z
3 x+1/2,-y+1/2,-z
4 -x+1/2,y+1/2,z
5 -x,y+1/2,-z+1/2
6 x,-y+1/2,z+1/2
7 -x+1/2,-y,z+1/2
8 x+1/2,y,-z+1/2

loop_
_atom_site_label
_atom_site_type_symbol
_atom_site_fract_x
_atom_site_fract_y
_atom_site_fract_z
_atom_site_B_iso_or_equiv
_atom_site_symmetry_multiplicity
_atom_site_Wyckoff_symbol
_atom_site_occupancy
Mn1 Mn 0.0 0.0 0.0 0.268 4 a 1.0
Mn2 Mn 0.5 0.5 0.5 0.342 4 b 1.0
Mn3 Mn 0.28467 0.99389 0.25339 0.457 8 c 1.0
Mn4 Mn 0.00552 0.24558 0.28493 0.448 8 c 1.0
Mn5 Mn 0.25195 0.28527 7.6E-4 0.493 8 c 1.0
O6 O 0.13316 0.15044 0.91362 0.637 8 c 1.0
O7 O 0.14572 0.91458 0.12791 0.729 8 c 1.0
O8 O 0.92074 0.12344 0.14485 0.442 8 c 1.0
O9 O 0.62523 0.64525 0.41825 0.612 8 c 1.0
O10 O 0.64727 0.4199 0.62763 0.55 8 c 1.0
O11 O 0.40935 0.63512 0.64971 0.624 8 c 1.0

