data_V2_O3_-_04-022-4750
#Copyright 2019 International Centre for Diffraction Data. All rights reserved.

_audit_creation_date                  2019-11-12
_audit_creation_method                'Generated by PDF-4+ 2020 4.20.0.1'

_chemical_name_systematic             'Vanadium Oxide'
_chemical_formula_moiety              'V2 O3'
_chemical_formula_sum                 'O3 V2'
_chemical_formula_weight              149.88

_cell_length_a                        7.930(2)
_cell_length_b                        4.669(1)
_cell_length_c                        4.799(1)
_cell_angle_alpha                     90.00(2)
_cell_angle_beta                      115.85(2)
_cell_angle_gamma                     90.00(2)
_cell_volume                          159.90
_cell_formula_units_Z                 4.00
_symmetry_cell_setting                monoclinic
_symmetry_space_group_name_H-M        C2/c
_symmetry_Int_Tables_number           15

loop_
_symmetry_equiv_pos_site_id
_symmetry_equiv_pos_as_xyz
1 x,y,z
2 -x,-y,-z
3 -x,y,-z+1/2
4 x,-y,z+1/2
5 x+1/2,y+1/2,z
6 -x+1/2,-y+1/2,-z
7 -x+1/2,y+1/2,-z+1/2
8 x+1/2,-y+1/2,z+1/2

loop_
_atom_site_label
_atom_site_type_symbol
_atom_site_fract_x
_atom_site_fract_y
_atom_site_fract_z
_atom_site_U_iso_or_equiv
_atom_site_symmetry_multiplicity
_atom_site_Wyckoff_symbol
_atom_site_occupancy
V1 V 0.908 0.733 0.955 . 8 f 1.0
O2 O 0.828 0.704 0.298 . 8 f 1.0
O3 O 0.0 0.069 0.25 . 4 e 1.0

