data_V6.094_O14_-_04-023-2709
#Copyright 2019 International Centre for Diffraction Data. All rights reserved.

_audit_creation_date                  2019-11-12
_audit_creation_method                'Generated by PDF-4+ 2020 4.20.0.1'

_chemical_name_systematic             'Vanadium Oxide'
_chemical_formula_moiety              'V6.094 O14'
_chemical_formula_sum                 'O14 V6.094'
_chemical_formula_weight              534.42

_cell_length_a                        7.35136(2)
_cell_length_b                        7.35136(2)
_cell_length_c                        4.51462(2)
_cell_angle_alpha                     90
_cell_angle_beta                      90
_cell_angle_gamma                     120
_cell_volume                          211.29
_cell_formula_units_Z                 1.00
_symmetry_cell_setting                hexagonal
_symmetry_space_group_name_H-M        P3
_symmetry_Int_Tables_number           143

loop_
_symmetry_equiv_pos_site_id
_symmetry_equiv_pos_as_xyz
1 x,y,z
2 -y,x-y,z
3 -x+y,-x,z

loop_
_atom_site_label
_atom_site_type_symbol
_atom_site_fract_x
_atom_site_fract_y
_atom_site_fract_z
_atom_site_U_iso_or_equiv
_atom_site_symmetry_multiplicity
_atom_site_Wyckoff_symbol
_atom_site_occupancy
V1 V 0.1153 0.4018 -0.07 0.0065 3 d 1.0
V2 V 0.402 0.3054 0.432 0.0393 3 d 1.0
V3 V 0.0 0.0 0.0 0.025 1 a 0.094
O4 O 0.252 0.0473 0.692 0.025 3 d 1.0
O5 O 0.3676 0.4729 0.72 0.025 3 d 1.0
O6 O 0.2082 0.268 0.22 0.025 3 d 1.0
O7 O 0.473 0.0985 0.234 0.025 3 d 1.0
O8 O 0.33333 0.66666 0.18 0.025 1 b 1.0
O9 O 0.66666 0.33333 0.671 0.025 1 c 1.0

