data_Mn_(_V_O3_)_-_01-081-8535
#Copyright 2019 International Centre for Diffraction Data. All rights reserved.

_audit_creation_date                  2019-11-12
_audit_creation_method                'Generated by PDF-4+ 2020 4.20.0.1'

_chemical_name_systematic             'Manganese Vanadium Oxide'
_chemical_name_common                 'manganese vanadate(IV)'
_chemical_formula_moiety              'Mn ( V O3 )'
_chemical_formula_sum                 'Mn O3 V'
_chemical_formula_weight              153.88

_cell_length_a                        5.2741(6)
_cell_length_b                        7.4100(11)
_cell_length_c                        5.1184(8)
_cell_angle_alpha                     90
_cell_angle_beta                      90
_cell_angle_gamma                     90
_cell_volume                          200.03
_cell_formula_units_Z                 4.00
_symmetry_cell_setting                orthorhombic
_symmetry_space_group_name_H-M        Pnma
_symmetry_Int_Tables_number           62

loop_
_symmetry_equiv_pos_site_id
_symmetry_equiv_pos_as_xyz
1 x,y,z
2 -x,-y,-z
3 x+1/2,-y+1/2,-z+1/2
4 -x+1/2,y+1/2,z+1/2
5 -x,y+1/2,-z
6 x,-y+1/2,z
7 -x+1/2,-y,z+1/2
8 x+1/2,y,-z+1/2

loop_
_atom_site_label
_atom_site_type_symbol
_atom_site_fract_x
_atom_site_fract_y
_atom_site_fract_z
_atom_site_U_iso_or_equiv
_atom_site_symmetry_multiplicity
_atom_site_Wyckoff_symbol
_atom_site_occupancy
Mn1 Mn 0.063 0.25 0.4853 0.017 4 c 1.0
V2 V 0.0 0.0 0.0 0.017 4 a 1.0
O3 O 0.4551 0.25 0.6074 0.009 4 c 1.0
O4 O 0.2983 0.0582 0.1842 0.01 8 d 1.0

