data_V_O2_-_01-071-0290
#Copyright 2019 International Centre for Diffraction Data. All rights reserved.

_audit_creation_date                  2019-11-12
_audit_creation_method                'Generated by PDF-4+ 2020 4.20.0.1'

_chemical_name_systematic             'Vanadium Oxide'
_chemical_name_common                 'vanadium(IV) oxide - Al-doped'
_chemical_formula_moiety              'V O2'
_chemical_formula_sum                 'O2 V'
_chemical_formula_weight              82.94

_cell_length_a                        9.06
_cell_length_b                        5.8000(1)
_cell_length_c                        4.5217(1)
_cell_angle_alpha                     90.00(1)
_cell_angle_beta                      91.85(1)
_cell_angle_gamma                     90.00(1)
_cell_volume                          237.48
_cell_formula_units_Z                 4.00
_symmetry_cell_setting                monoclinic
_symmetry_space_group_name_H-M        P2/m
_symmetry_Int_Tables_number           10

loop_
_symmetry_equiv_pos_site_id
_symmetry_equiv_pos_as_xyz
1 x,y,z
2 -x,-y,-z
3 x,-y,z
4 -x,y,-z

loop_
_atom_site_label
_atom_site_type_symbol
_atom_site_fract_x
_atom_site_fract_y
_atom_site_fract_z
_atom_site_U_iso_or_equiv
_atom_site_symmetry_multiplicity
_atom_site_Wyckoff_symbol
_atom_site_occupancy
V1 V 0.0 0.7189 0.0 0.00547 2 i 1.0
V2 V 0.2312 0.0 0.5311 0.00564 2 m 1.0
O3 O 0.146 0.2474 0.2865 0.0075 4 o 1.0
O4 O 0.6025 0.0 0.7716 0.00547 2 m 1.0
O5 O -0.098 0.0 0.2138 0.00838 2 m 1.0

loop_
_atom_site_aniso_label
_atom_site_aniso_U_11
_atom_site_aniso_U_12
_atom_site_aniso_U_13
_atom_site_aniso_U_22
_atom_site_aniso_U_23
_atom_site_aniso_U_33
V1 0.0053 0.0 0.0014 0.0054 0.0 0.0058
V2 0.004 0.0 0.0 0.008 0.0 0.0049
O4 0.0037 0.0 0.0017 0.0031 0.0 0.0097
O5 0.0039 0.0 -0.0017 0.004 0.0 0.0171

