data_V2_O5_-_01-084-3349
#Copyright 2019 International Centre for Diffraction Data. All rights reserved.

_audit_creation_date                  2019-11-12
_audit_creation_method                'Generated by PDF-4+ 2020 4.20.0.1'

_chemical_name_systematic             'Vanadium Oxide'
_chemical_name_common                 'vanadium(V) oxide'
_chemical_formula_moiety              'V2 O5'
_chemical_formula_sum                 'O5 V2'
_chemical_formula_weight              181.88

_cell_length_a                        11.5131(1)
_cell_length_b                        3.5644(1)
_cell_length_c                        4.3736(1)
_cell_angle_alpha                     90
_cell_angle_beta                      90
_cell_angle_gamma                     90
_cell_volume                          179.48
_cell_formula_units_Z                 2.00
_symmetry_cell_setting                orthorhombic
_symmetry_space_group_name_H-M        Pmmn
_symmetry_Int_Tables_number           59

loop_
_symmetry_equiv_pos_site_id
_symmetry_equiv_pos_as_xyz
1 x,y,z
2 -x,-y,-z
3 -x+1/2,y,z
4 x+1/2,-y,-z
5 x,-y+1/2,z
6 -x,y+1/2,-z
7 -x+1/2,-y+1/2,z
8 x+1/2,y+1/2,-z

loop_
_atom_site_label
_atom_site_type_symbol
_atom_site_fract_x
_atom_site_fract_y
_atom_site_fract_z
_atom_site_B_iso_or_equiv
_atom_site_symmetry_multiplicity
_atom_site_Wyckoff_symbol
_atom_site_occupancy
V1 V 0.10118 0.25 0.8917 0.54 4 f 1.0
O2 O 0.1043 0.25 0.531 1.21 4 f 1.0
O3 O -0.0689 0.25 0.003 0.79 4 f 1.0
O4 O 0.25 0.25 0.001 0.9 2 a 1.0

