data_(_O2_)_-_04-019-1249
#Copyright 2019 International Centre for Diffraction Data. All rights reserved.

_audit_creation_date                  2019-11-12
_audit_creation_method                'Generated by PDF-4+ 2020 4.20.0.1'

_chemical_name_systematic             Oxygen
_chemical_name_common                 '\d-( O2 )'
_chemical_formula_moiety              '( O2 )'
_chemical_formula_sum                 O2
_chemical_formula_weight              32.00

_cell_length_a                        3.06
_cell_length_b                        4.33
_cell_length_c                        6.83
_cell_angle_alpha                     90
_cell_angle_beta                      90
_cell_angle_gamma                     90
_cell_volume                          90.50
_cell_formula_units_Z                 4.00
_symmetry_cell_setting                orthorhombic
_symmetry_space_group_name_H-M        Fmmm
_symmetry_Int_Tables_number           69

loop_
_symmetry_equiv_pos_site_id
_symmetry_equiv_pos_as_xyz
1 x,y,z
2 -x,-y,-z
3 x,-y,-z
4 -x,y,z
5 -x,y,-z
6 x,-y,z
7 -x,-y,z
8 x,y,-z
9 x,y+1/2,z+1/2
10 -x,-y+1/2,-z+1/2
11 x,-y+1/2,-z+1/2
12 -x,y+1/2,z+1/2
13 -x,y+1/2,-z+1/2
14 x,-y+1/2,z+1/2
15 -x,-y+1/2,z+1/2
16 x,y+1/2,-z+1/2
17 x+1/2,y,z+1/2
18 -x+1/2,-y,-z+1/2
19 x+1/2,-y,-z+1/2
20 -x+1/2,y,z+1/2
21 -x+1/2,y,-z+1/2
22 x+1/2,-y,z+1/2
23 -x+1/2,-y,z+1/2
24 x+1/2,y,-z+1/2
25 x+1/2,y+1/2,z
26 -x+1/2,-y+1/2,-z
27 x+1/2,-y+1/2,-z
28 -x+1/2,y+1/2,z
29 -x+1/2,y+1/2,-z
30 x+1/2,-y+1/2,z
31 -x+1/2,-y+1/2,z
32 x+1/2,y+1/2,-z

loop_
_atom_site_label
_atom_site_type_symbol
_atom_site_fract_x
_atom_site_fract_y
_atom_site_fract_z
_atom_site_U_iso_or_equiv
_atom_site_symmetry_multiplicity
_atom_site_Wyckoff_symbol
_atom_site_occupancy
O1 O 0.0 0.0 0.0871 . 8 i 1.0

