data_Nb9_V_O25_-_04-020-9782
#Copyright 2019 International Centre for Diffraction Data. All rights reserved.

_audit_creation_date                  2019-11-12
_audit_creation_method                'Generated by PDF-4+ 2020 4.20.0.1'

_chemical_name_systematic             'Niobium Vanadium Oxide'
_chemical_name_common                 '\b-Nb9 V O25'
_chemical_formula_moiety              'Nb9 V O25'
_chemical_formula_sum                 'Nb9 O25 V'
_chemical_formula_weight              1287.07

_cell_length_a                        15.7726(9)
_cell_length_b                        15.7726(9)
_cell_length_c                        3.8399(6)
_cell_angle_alpha                     90
_cell_angle_beta                      90
_cell_angle_gamma                     90
_cell_volume                          955.27
_cell_formula_units_Z                 2.00
_symmetry_cell_setting                tetragonal
_symmetry_space_group_name_H-M        I4/m
_symmetry_Int_Tables_number           87

loop_
_symmetry_equiv_pos_site_id
_symmetry_equiv_pos_as_xyz
1 x,y,z
2 -x,-y,-z
3 -x,-y,z
4 x,y,-z
5 -y,x,z
6 y,-x,-z
7 y,-x,z
8 -y,x,-z
9 x+1/2,y+1/2,z+1/2
10 -x+1/2,-y+1/2,-z+1/2
11 -x+1/2,-y+1/2,z+1/2
12 x+1/2,y+1/2,-z+1/2
13 -y+1/2,x+1/2,z+1/2
14 y+1/2,-x+1/2,-z+1/2
15 y+1/2,-x+1/2,z+1/2
16 -y+1/2,x+1/2,-z+1/2

loop_
_atom_site_label
_atom_site_type_symbol
_atom_site_fract_x
_atom_site_fract_y
_atom_site_fract_z
_atom_site_U_iso_or_equiv
_atom_site_symmetry_multiplicity
_atom_site_Wyckoff_symbol
_atom_site_occupancy
Nb1 Nb 0.0 0.0 0.0 0.0194 2 a 1.0
Nb2 Nb 0.78149 0.10593 0.0 0.00583 8 h 1.0
Nb3 Nb 0.88301 0.32601 0.0 0.0057 8 h 1.0
V4 V 0.0 0.5 0.75 0.00713 4 d 0.5
O5 O 0.8838 0.0515 0.0 0.01133 8 h 1.0
O6 O 0.8233 0.2169 0.0 0.01333 8 h 1.0
O7 O 0.7479 0.1109 0.5 0.00867 8 h 1.0
O8 O 0.7185 -0.0125 0.0 0.01033 8 h 1.0
O9 O 0.6482 0.1572 0.0 0.00967 8 h 1.0
O10 O 0.0 0.0 0.5 0.02067 2 b 1.0
O11 O 0.9251 0.4473 0.0 0.007 8 h 1.0

loop_
_atom_site_aniso_label
_atom_site_aniso_U_11
_atom_site_aniso_U_12
_atom_site_aniso_U_13
_atom_site_aniso_U_22
_atom_site_aniso_U_23
_atom_site_aniso_U_33
Nb1 0.0071 0.0 0.0 0.0071 0.0 0.044
Nb2 0.0044 -2.0E-4 0.0 0.0083 0.0 0.0048
Nb3 0.0058 0.0015 0.0 0.0068 0.0 0.0045
V4 0.0072 0.0 0.0 0.0072 0.0 0.007
O5 0.01 0.003 0.0 0.012 0.0 0.012
O6 0.018 -0.002 0.0 0.01 0.0 0.012
O7 0.003 -0.003 0.0 0.011 0.0 0.012
O8 0.009 -0.004 0.0 0.007 0.0 0.015
O9 0.01 0.005 0.0 0.015 0.0 0.004
O10 0.023 0.0 0.0 0.023 0.0 0.016
O11 0.008 0.0 0.0 0.007 0.0 0.006

