data_V13_O16_-_04-015-8981
#Copyright 2019 International Centre for Diffraction Data. All rights reserved.

_audit_creation_date                  2019-11-12
_audit_creation_method                'Generated by PDF-4+ 2020 4.20.0.1'

_chemical_name_systematic             'Vanadium Oxide'
_chemical_formula_moiety              'V13 O16'
_chemical_formula_sum                 'O16 V13'
_chemical_formula_weight              918.22

_cell_length_a                        11.746(1)
_cell_length_b                        11.746(1)
_cell_length_c                        8.252(8)
_cell_angle_alpha                     90
_cell_angle_beta                      90
_cell_angle_gamma                     90
_cell_volume                          1138.52
_cell_formula_units_Z                 4.00
_symmetry_cell_setting                tetragonal
_symmetry_space_group_name_H-M        I41/amd
_symmetry_Int_Tables_number           141

loop_
_symmetry_equiv_pos_site_id
_symmetry_equiv_pos_as_xyz
1 x,y,z
2 -x,-y,-z
3 -x+1/2,-y,z+1/2
4 x+1/2,y,-z+1/2
5 -y+1/4,x+3/4,z+1/4
6 y+3/4,-x+1/4,-z+3/4
7 y+1/4,-x+1/4,z+3/4
8 -y+3/4,x+3/4,-z+1/4
9 -x+1/2,y,-z+1/2
10 x+1/2,-y,z+1/2
11 x,-y,-z
12 -x,y,z
13 y+1/4,x+3/4,-z+1/4
14 -y+3/4,-x+1/4,z+3/4
15 -y+1/4,-x+1/4,-z+3/4
16 y+3/4,x+3/4,z+1/4
17 x+1/2,y+1/2,z+1/2
18 -x+1/2,-y+1/2,-z+1/2
19 -x,-y+1/2,z
20 x,y+1/2,-z
21 -y+3/4,x+1/4,z+3/4
22 y+1/4,-x+3/4,-z+1/4
23 y+3/4,-x+3/4,z+1/4
24 -y+1/4,x+1/4,-z+3/4
25 -x,y+1/2,-z
26 x,-y+1/2,z
27 x+1/2,-y+1/2,-z+1/2
28 -x+1/2,y+1/2,z+1/2
29 y+3/4,x+1/4,-z+3/4
30 -y+1/4,-x+3/4,z+1/4
31 -y+3/4,-x+3/4,-z+1/4
32 y+1/4,x+1/4,z+3/4

loop_
_atom_site_label
_atom_site_type_symbol
_atom_site_fract_x
_atom_site_fract_y
_atom_site_fract_z
_atom_site_U_iso_or_equiv
_atom_site_symmetry_multiplicity
_atom_site_Wyckoff_symbol
_atom_site_occupancy
V1 V 0.0 0.125 0.25 . 16 h 1.0
V2 V 0.125 0.0 0.0 . 16 f 1.0
V3 V 0.625 0.0 0.0 . 16 f 1.0
V4 V 0.0 0.75 0.125 . 4 a 1.0
O5 O 0.0 0.125 0.5 . 16 h 1.0
O6 O 0.0 0.875 0.0 . 16 h 1.0
O7 O 0.125 0.0 0.25 . 32 i 1.0

