data_Nb_O1.67_-_04-002-2664
#Copyright 2019 International Centre for Diffraction Data. All rights reserved.

_audit_creation_date                  2019-11-12
_audit_creation_method                'Generated by PDF-4+ 2020 4.20.0.1'

_chemical_name_systematic             'Niobium Oxide'
_chemical_name_common                 '\d-Nb O1.67'
_chemical_formula_moiety              'Nb O1.67'
_chemical_formula_sum                 'Nb O1.67'
_chemical_formula_weight              119.62

_cell_length_a                        3.604
_cell_length_b                        3.604
_cell_length_c                        3.923
_cell_angle_alpha                     90
_cell_angle_beta                      90
_cell_angle_gamma                     120
_cell_volume                          44.13
_cell_formula_units_Z                 1.00
_symmetry_cell_setting                hexagonal
_symmetry_space_group_name_H-M        P6/mmm
_symmetry_Int_Tables_number           191

loop_
_symmetry_equiv_pos_site_id
_symmetry_equiv_pos_as_xyz
1 x,y,z
2 -x,-y,-z
3 -y,x-y,z
4 y,-x+y,-z
5 -x+y,-x,z
6 x-y,x,-z
7 y,x,z
8 -y,-x,-z
9 -x,-x+y,z
10 x,x-y,-z
11 x-y,-y,z
12 -x+y,y,-z
13 -x,-y,z
14 x,y,-z
15 y,-x+y,z
16 -y,x-y,-z
17 x-y,x,z
18 -x+y,-x,-z
19 -y,-x,z
20 y,x,-z
21 x,x-y,z
22 -x,-x+y,-z
23 -x+y,y,z
24 x-y,-y,-z

loop_
_atom_site_label
_atom_site_type_symbol
_atom_site_fract_x
_atom_site_fract_y
_atom_site_fract_z
_atom_site_U_iso_or_equiv
_atom_site_symmetry_multiplicity
_atom_site_Wyckoff_symbol
_atom_site_occupancy
Nb1 Nb 0.0 0.0 0.0 . 1 a 1.0
O2 O 0.33333 0.66666 0.5 . 2 d 0.835

