data_Nb2_O5_-_00-068-0149
#Copyright 2019 International Centre for Diffraction Data. All rights reserved.

_audit_creation_date                  2019-11-12
_audit_creation_method                'Generated by PDF-4+ 2020 4.20.0.1'

_chemical_name_systematic             'Niobium Oxide'
_chemical_formula_moiety              'Nb2 O5'
_chemical_formula_sum                 'Nb2 O5'
_chemical_formula_weight              265.81

_cell_length_a                        21.153(7)
_cell_length_b                        3.8233(5)
_cell_length_c                        19.356(5)
_cell_angle_alpha                     90
_cell_angle_beta                      119.80(2)
_cell_angle_gamma                     90
_cell_volume                          1365.55
_cell_formula_units_Z                 14.00
_symmetry_cell_setting                monoclinic
_symmetry_space_group_name_H-M        P12/m1
_symmetry_Int_Tables_number           10

loop_
_symmetry_equiv_pos_site_id
_symmetry_equiv_pos_as_xyz
1 x,y,z
2 -x,-y,-z
3 x,-y,z
4 -x,y,-z

loop_
_atom_site_label
_atom_site_type_symbol
_atom_site_fract_x
_atom_site_fract_y
_atom_site_fract_z
_atom_site_B_iso_or_equiv
_atom_site_symmetry_multiplicity
_atom_site_Wyckoff_symbol
_atom_site_occupancy
Nb1 Nb 0.0 0.2285 0.0 0.89622 2 i 0.5
Nb2 Nb 0.5 0.0 0.5 1.49705 1 g 1.0
Nb3 Nb 0.1643 0.0 0.00353 0.59076 2 m 1.0
Nb4 Nb 0.23623 0.0 0.23134 0.62149 2 m 1.0
Nb5 Nb 0.30284 0.0 0.45456 0.70079 2 m 1.0
Nb6 Nb 0.36087 0.0 0.04553 0.49532 2 m 1.0
Nb7 Nb 0.43325 0.0 0.27741 1.35995 2 m 1.0
Nb8 Nb 0.5627 0.0 0.09346 0.45737 2 m 1.0
Nb9 Nb 0.62943 0.0 0.32219 0.56914 2 m 1.0
Nb10 Nb 0.09353 0.5 0.20187 0.67282 2 n 1.0
Nb11 Nb 0.15921 0.5 0.4241 0.68247 2 n 1.0
Nb12 Nb 0.7033 0.5 0.12414 0.46474 2 n 1.0
Nb13 Nb 0.77056 0.5 0.35141 0.57163 2 n 1.0
Nb14 Nb 0.89895 0.5 0.16353 0.55206 2 n 1.0
Nb15 Nb 0.96461 0.5 0.38928 1.51644 2 n 1.0
O16 O 0.0 0.5 0.5 1.16 1 f 1.0
O17 O 0.5 0.5 0.5 1.26 1 h 1.0
O18 O 0.118 0.0 0.2012 0.56 2 m 1.0
O19 O 0.1867 0.0 0.4314 0.45 2 m 1.0
O20 O 0.1931 0.0 0.1067 0.7 2 m 1.0
O21 O 0.2639 0.0 0.3395 0.75 2 m 1.0
O22 O 0.2619 0.0 0.0139 0.73 2 m 1.0
O23 O 0.3257 0.0 0.2417 0.92 2 m 1.0
O24 O 0.3971 0.0 0.479 0.93 2 m 1.0
O25 O 0.4032 0.0 0.1497 0.74 2 m 1.0
O26 O 0.4624 0.0 0.3833 1.07 2 m 1.0
O27 O 0.4611 0.0 0.0382 0.4 2 m 1.0
O28 O 0.5344 0.0 0.2954 0.85 2 m 1.0
O29 O 0.5898 0.0 0.1959 0.63 2 m 1.0
O30 O 0.6701 0.0 0.4306 0.65 2 m 1.0
O31 O 0.6707 0.0 0.0961 0.36 2 m 1.0
O32 O 0.7411 0.0 0.3357 0.46 2 m 1.0
O33 O 0.8858 0.0 0.1341 0.49 2 m 1.0
O34 O 0.9412 0.0 0.0303 0.68 2 m 1.0
O35 O 0.9638 0.0 0.3798 0.97 2 m 1.0
O36 O 0.0608 0.5 0.0837 0.91 2 n 1.0
O37 O 0.0668 0.5 0.4051 0.89 2 n 1.0
O38 O 0.1327 0.5 0.3122 0.67 2 n 1.0
O39 O 0.2062 0.5 0.2184 0.45 2 n 1.0
O40 O 0.2764 0.5 0.4504 0.44 2 n 1.0
O41 O 0.3551 0.5 0.0113 0.44 2 n 1.0
O42 O 0.4275 0.5 0.2616 0.87 2 n 1.0
O43 O 0.5855 0.5 0.0884 0.44 2 n 1.0
O44 O 0.6535 0.5 0.3176 0.39 2 n 1.0
O45 O 0.7263 0.5 0.2257 0.69 2 n 1.0
O46 O 0.7987 0.5 0.4577 0.78 2 n 1.0
O47 O 0.7917 0.5 0.1318 0.73 2 n 1.0
O48 O 0.8613 0.5 0.3614 0.95 2 n 1.0
O49 O 0.8474 0.5 0.0283 0.46 2 n 1.0
O50 O 0.928 0.5 0.2664 0.83 2 n 1.0
O51 O -0.0029 0.5 0.1762 0.72 2 n 1.0

loop_
_atom_site_aniso_label
_atom_site_aniso_B_11
_atom_site_aniso_B_12
_atom_site_aniso_B_13
_atom_site_aniso_B_22
_atom_site_aniso_B_23
_atom_site_aniso_B_33
Nb1 0.498665 0.0 0.308312 1.50269 0.0 0.700827
Nb2 0.646917 0.0 0.369975 2.74226 0.0 1.03776
Nb3 0.566052 0.0 0.234317 0.613938 0.0 0.539098
Nb4 0.417801 0.0 0.24665 0.561315 0.0 0.808646
Nb5 0.498665 0.0 0.369975 0.514539 0.0 1.06472
Nb6 0.52562 0.0 0.24665 0.397598 0.0 0.539098
Nb7 0.57953 0.0 0.283647 2.75395 0.0 0.700827
Nb8 0.417801 0.0 0.19732 0.397598 0.0 0.512143
Nb9 0.498665 0.0 0.308312 0.467763 0.0 0.741259
Nb10 0.512143 0.0 0.34531 0.666562 0.0 0.849079
Nb11 0.485188 0.0 0.357642 0.496998 0.0 1.03776
Nb12 0.404323 0.0 0.184987 0.403445 0.0 0.52562
Nb13 0.444755 0.0 0.234317 0.502845 0.0 0.700827
Nb14 0.512143 0.0 0.209652 0.59055 0.0 0.498665
Nb15 0.63344 0.0 0.332977 3.16324 0.0 0.741259

