data_V6_O13_-_04-013-9633
#Copyright 2019 International Centre for Diffraction Data. All rights reserved.

_audit_creation_date                  2019-11-12
_audit_creation_method                'Generated by PDF-4+ 2020 4.20.0.1'

_chemical_name_systematic             'Vanadium Oxide'
_chemical_formula_moiety              'V6 O13'
_chemical_formula_sum                 'O13 V6'
_chemical_formula_weight              513.64

_cell_length_a                        10.0605(4)
_cell_length_b                        3.7108(3)
_cell_length_c                        11.9633(6)
_cell_angle_alpha                     90.000(4)
_cell_angle_beta                      100.927(4)
_cell_angle_gamma                     90.000(4)
_cell_volume                          438.52
_cell_formula_units_Z                 2.00
_symmetry_cell_setting                monoclinic
_symmetry_space_group_name_H-M        Pc
_symmetry_Int_Tables_number           7

loop_
_symmetry_equiv_pos_site_id
_symmetry_equiv_pos_as_xyz
1 x,y,z
2 x,-y,z+1/2

loop_
_atom_site_label
_atom_site_type_symbol
_atom_site_fract_x
_atom_site_fract_y
_atom_site_fract_z
_atom_site_U_iso_or_equiv
_atom_site_symmetry_multiplicity
_atom_site_Wyckoff_symbol
_atom_site_occupancy
V1 V 0.993888 0.30547 0.345635 0.00428 2 a 1.0
V2 V -0.00318 0.23442 0.64159 0.00333 2 a 1.0
V3 V 0.35945 0.25075 0.41726 0.0018 2 a 1.0
V4 V 0.63137 0.2477 0.59109 0.00166 2 a 1.0
V5 V 0.3629 0.24845 0.71952 0.0019 2 a 1.0
V6 V 0.62975 0.25116 0.28889 0.00172 2 a 1.0
O7 O -0.00338 0.256 0.18496 0.00376 2 a 1.0
O8 O 0.38429 0.2489 0.88711 0.00324 2 a 1.0
O9 O 0.40576 0.2512 0.25536 0.00316 2 a 1.0
O10 O -0.00355 0.2428 0.50362 0.00578 2 a 1.0
O11 O 0.19198 0.2528 0.38814 0.00421 2 a 1.0
O12 O 0.19615 0.2456 0.68354 0.00434 2 a 1.0
O13 O 0.40316 0.2499 0.56668 0.00379 2 a 1.0
O14 O -0.00447 0.2405 0.83018 0.00435 2 a 1.0
O15 O 0.60862 0.2512 0.12271 0.00328 2 a 1.0
O16 O 0.5868 0.2484 0.75362 0.00313 2 a 1.0
O17 O 0.79887 0.2457 0.6193 0.00435 2 a 1.0
O18 O 0.79785 0.2545 0.32391 0.00418 2 a 1.0
O19 O 0.58849 0.2499 0.44333 0.00394 2 a 1.0

loop_
_atom_site_aniso_label
_atom_site_aniso_U_11
_atom_site_aniso_U_12
_atom_site_aniso_U_13
_atom_site_aniso_U_22
_atom_site_aniso_U_23
_atom_site_aniso_U_33
V1 0.0028 0.0 3.2E-4 0.00449 -0.00182 0.00536
V2 0.00273 -4.0E-5 3.8E-4 0.00269 -0.0021 0.00445
V3 0.00193 0.0 4.1E-4 0.00166 4.0E-5 0.00183
V4 0.00172 4.0E-5 4.4E-4 0.00182 -1.0E-5 0.00149
V5 0.00162 -3.0E-5 1.3E-4 0.0015 0.0 0.00249
V6 0.00177 -3.0E-5 2.6E-4 0.00137 6.0E-5 0.00198
O7 0.0042 4.0E-4 8.0E-4 0.0033 -0.0027 0.0038
O8 0.0044 2.0E-4 9.0E-4 0.0021 1.0E-4 0.0033
O9 0.0041 -1.0E-4 5.0E-4 0.0018 1.0E-4 0.0035
O10 0.0048 -2.0E-4 0.001111 0.0098 -0.0037 0.0029
O11 0.003 3.0E-4 0.0012 0.0046 -4.0E-4 0.0052
O12 0.0032 1.0E-4 5.0E-4 0.0043 -1.0E-4 0.0054
O13 0.0042 -3.0E-4 8.0E-4 0.0038 0.0 0.0034
O14 0.0057 -5.0E-4 0.0012 0.0017 5.0E-4 0.0057
O15 0.0049 5.0E-4 9.0E-4 0.0022 3.0E-4 0.0028
O16 0.0038 -1.0E-4 0.001 0.0022 1.0E-4 0.0035
O17 0.0023 -2.0E-4 4.0E-4 0.0048 -3.0E-4 0.0058
O18 0.0018 -5.0E-4 0.0 0.0055 -3.0E-4 0.005
O19 0.005 4.0E-4 0.0012 0.0042 1.0E-4 0.0028

