data_V3_O5_-_04-007-0359
#Copyright 2019 International Centre for Diffraction Data. All rights reserved.

_audit_creation_date                  2019-11-12
_audit_creation_method                'Generated by PDF-4+ 2020 4.20.0.1'

_chemical_name_systematic             'Vanadium Oxide'
_chemical_formula_moiety              'V3 O5'
_chemical_formula_sum                 'O5 V3'
_chemical_formula_weight              232.82

_cell_length_a                        9.859(1)
_cell_length_b                        5.0416(5)
_cell_length_c                        6.991(1)
_cell_angle_alpha                     90.000(6)
_cell_angle_beta                      109.478(6)
_cell_angle_gamma                     90.000(6)
_cell_volume                          327.60
_cell_formula_units_Z                 4.00
_symmetry_cell_setting                monoclinic
_symmetry_space_group_name_H-M        P2/c
_symmetry_Int_Tables_number           13

loop_
_symmetry_equiv_pos_site_id
_symmetry_equiv_pos_as_xyz
1 x,y,z
2 -x,-y,-z
3 -x,y,-z+1/2
4 x,-y,z+1/2

loop_
_atom_site_label
_atom_site_type_symbol
_atom_site_fract_x
_atom_site_fract_y
_atom_site_fract_z
_atom_site_B_iso_or_equiv
_atom_site_symmetry_multiplicity
_atom_site_Wyckoff_symbol
_atom_site_occupancy
V1 V 0.13216 0.00626 0.41073 0.329 4 g 1.0
V2 V 0.37089 0.49659 0.09136 0.347 4 g 1.0
V3 V 0.0 0.5 0.0 0.338 2 c 1.0
V4 V 0.5 0.0 0.0 0.324 2 d 1.0
O5 O 0.29983 0.14739 0.46191 0.522 4 g 1.0
O6 O 0.18668 0.34014 0.02629 0.463 4 g 1.0
O7 O 0.08201 0.15179 0.63923 0.423 4 g 1.0
O8 O 0.42105 0.34123 0.86342 0.378 4 g 1.0
O9 O 0.0 0.29721 0.25 0.405 2 e 1.0
O10 O 0.5 0.18517 0.25 0.388 2 f 1.0

