data_Nb9_V_O25_-_04-008-1774
#Copyright 2019 International Centre for Diffraction Data. All rights reserved.

_audit_creation_date                  2019-11-12
_audit_creation_method                'Generated by PDF-4+ 2020 4.20.0.1'

_chemical_name_systematic             'Niobium Vanadium Oxide'
_chemical_formula_moiety              'Nb9 V O25'
_chemical_formula_sum                 'Nb9 O25 V'
_chemical_formula_weight              1287.07

_cell_length_a                        15.72
_cell_length_b                        15.72
_cell_length_c                        3.821
_cell_angle_alpha                     90
_cell_angle_beta                      90
_cell_angle_gamma                     90
_cell_volume                          944.24
_cell_formula_units_Z                 2.00
_symmetry_cell_setting                tetragonal
_symmetry_space_group_name_H-M        I4/m
_symmetry_Int_Tables_number           87

loop_
_symmetry_equiv_pos_site_id
_symmetry_equiv_pos_as_xyz
1 x,y,z
2 -x,-y,-z
3 -x,-y,z
4 x,y,-z
5 -y,x,z
6 y,-x,-z
7 y,-x,z
8 -y,x,-z
9 x+1/2,y+1/2,z+1/2
10 -x+1/2,-y+1/2,-z+1/2
11 -x+1/2,-y+1/2,z+1/2
12 x+1/2,y+1/2,-z+1/2
13 -y+1/2,x+1/2,z+1/2
14 y+1/2,-x+1/2,-z+1/2
15 y+1/2,-x+1/2,z+1/2
16 -y+1/2,x+1/2,-z+1/2

loop_
_atom_site_label
_atom_site_type_symbol
_atom_site_fract_x
_atom_site_fract_y
_atom_site_fract_z
_atom_site_U_iso_or_equiv
_atom_site_symmetry_multiplicity
_atom_site_Wyckoff_symbol
_atom_site_occupancy
O1 O 0.0115 0.282 0.0 . 8 h 1.0
O2 O 0.0664 0.4512 0.0 . 8 h 1.0
Nb3 Nb 0.11428 0.32977 0.0 . 8 h 1.0
O4 O 0.1169 0.0518 0.0 . 8 h 1.0
O5 O 0.1751 0.2203 0.0 . 8 h 1.0
Nb6 Nb 0.21843 0.1089 0.0 . 8 h 1.0
O7 O 0.2472 0.3893 0.0 . 8 h 1.0
O8 O 0.3543 0.1561 0.0 . 8 h 1.0
V9 V 0.0 0.5 0.25 . 4 d 1.0
O10 O 0.0 0.0 0.5 . 2 b 1.0
Nb11 Nb 0.0 0.0 0.0 . 2 a 1.0

