data_V3_O7_-_04-001-9096
#Copyright 2019 International Centre for Diffraction Data. All rights reserved.

_audit_creation_date                  2019-11-12
_audit_creation_method                'Generated by PDF-4+ 2020 4.20.0.1'

_chemical_name_systematic             'Vanadium Oxide'
_chemical_formula_moiety              'V3 O7'
_chemical_formula_sum                 'O7 V3'
_chemical_formula_weight              264.82

_cell_length_a                        21.93
_cell_length_b                        3.68
_cell_length_c                        18.51
_cell_angle_alpha                     90
_cell_angle_beta                      96.4
_cell_angle_gamma                     90
_cell_volume                          1484.49
_cell_formula_units_Z                 12.00
_symmetry_cell_setting                monoclinic
_symmetry_space_group_name_H-M        C2/c
_symmetry_Int_Tables_number           15

loop_
_symmetry_equiv_pos_site_id
_symmetry_equiv_pos_as_xyz
1 x,y,z
2 -x,-y,-z
3 -x,y,-z+1/2
4 x,-y,z+1/2
5 x+1/2,y+1/2,z
6 -x+1/2,-y+1/2,-z
7 -x+1/2,y+1/2,-z+1/2
8 x+1/2,-y+1/2,z+1/2

loop_
_atom_site_label
_atom_site_type_symbol
_atom_site_fract_x
_atom_site_fract_y
_atom_site_fract_z
_atom_site_U_iso_or_equiv
_atom_site_symmetry_multiplicity
_atom_site_Wyckoff_symbol
_atom_site_occupancy
O1 O 0.02324 0.2498 0.47363 . 8 f 1.0
O2 O 0.10244 0.2564 0.09372 . 8 f 1.0
V3 V 0.17161 0.25462 0.12622 . 8 f 1.0
O4 O 0.17387 0.2544 0.2326 . 8 f 1.0
O5 O 0.19225 0.2412 0.43942 . 8 f 1.0
O6 O 0.21331 0.2478 0.04814 . 8 f 1.0
O7 O 0.29557 0.2527 0.16428 . 8 f 1.0
V8 V 0.30451 0.17989 0.0586 . 8 f 1.0
O9 O 0.31591 0.2537 0.34644 . 8 f 1.0
V10 V 0.33711 0.25494 0.24533 . 8 f 1.0
O11 O 0.39462 0.2443 0.06273 . 8 f 1.0
O12 O 0.41009 0.2509 0.23323 . 8 f 1.0
V13 V 0.46946 0.25186 0.05534 . 8 f 1.0
O14 O 0.50324 0.2484 0.14077 . 8 f 1.0
O15 O 0.0 0.2493 0.25 . 4 e 1.0
V16 V 0.0 0.68913 0.25 . 4 e 1.0

