data_Nb2_O5_-_00-068-0148
#Copyright 2019 International Centre for Diffraction Data. All rights reserved.

_audit_creation_date                  2019-11-12
_audit_creation_method                'Generated by PDF-4+ 2020 4.20.0.1'

_chemical_name_systematic             'Niobium Oxide'
_chemical_formula_moiety              'Nb2 O5'
_chemical_formula_sum                 'Nb2 O5'
_chemical_formula_weight              265.81

_cell_length_a                        12.740(2)
_cell_length_b                        4.8830(6)
_cell_length_c                        5.5609(6)
_cell_angle_alpha                     90
_cell_angle_beta                      105.02(1)
_cell_angle_gamma                     90
_cell_volume                          334.16
_cell_formula_units_Z                 4.00
_symmetry_cell_setting                monoclinic
_symmetry_space_group_name_H-M        C12/c1
_symmetry_Int_Tables_number           15

loop_
_symmetry_equiv_pos_site_id
_symmetry_equiv_pos_as_xyz
1 x,y,z
2 -x,-y,-z
3 -x,y,-z+1/2
4 x,-y,z+1/2
5 x+1/2,y+1/2,z
6 -x+1/2,-y+1/2,-z
7 -x+1/2,y+1/2,-z+1/2
8 x+1/2,-y+1/2,z+1/2

loop_
_atom_site_label
_atom_site_type_symbol
_atom_site_fract_x
_atom_site_fract_y
_atom_site_fract_z
_atom_site_U_iso_or_equiv
_atom_site_symmetry_multiplicity
_atom_site_Wyckoff_symbol
_atom_site_occupancy
Nb1 Nb 0.3598 0.25874 0.2512 0.00492 8 f 1.0
O2 O 0.5 0.3965 0.25 0.00816 4 e 1.0
O3 O 0.8912 0.5579 0.5291 0.00833 8 f 1.0
O4 O 0.2055 0.0723 0.1256 0.00679 8 f 1.0

loop_
_atom_site_aniso_label
_atom_site_aniso_U_11
_atom_site_aniso_U_12
_atom_site_aniso_U_13
_atom_site_aniso_U_22
_atom_site_aniso_U_23
_atom_site_aniso_U_33
Nb1 0.0052 -4.0E-4 0.0016 0.0047 -1.0E-4 0.005
O2 0.0071 0.0 0.0034 0.0076 0.0 0.0104
O3 0.0083 -6.0E-4 0.002 0.0081 0.0016 0.0085
O4 0.0058 4.0E-4 0.0018 0.0071 -7.0E-4 0.0075

