data_V3_O5_-_04-016-9633
#Copyright 2019 International Centre for Diffraction Data. All rights reserved.

_audit_creation_date                  2019-11-12
_audit_creation_method                'Generated by PDF-4+ 2020 4.20.0.1'

_chemical_name_systematic             'Vanadium Oxide'
_chemical_formula_moiety              'V3 O5'
_chemical_formula_sum                 'O5 V3'
_chemical_formula_weight              232.82

_cell_length_a                        10.0546(12)
_cell_length_b                        5.0603(5)
_cell_length_c                        7.0111(10)
_cell_angle_alpha                     90.00(1)
_cell_angle_beta                      110.845(10)
_cell_angle_gamma                     90.00(1)
_cell_volume                          333.37
_cell_formula_units_Z                 4.00
_symmetry_cell_setting                monoclinic
_symmetry_space_group_name_H-M        C2/c
_symmetry_Int_Tables_number           15

loop_
_symmetry_equiv_pos_site_id
_symmetry_equiv_pos_as_xyz
1 x,y,z
2 -x,-y,-z
3 -x,y,-z+1/2
4 x,-y,z+1/2
5 x+1/2,y+1/2,z
6 -x+1/2,-y+1/2,-z
7 -x+1/2,y+1/2,-z+1/2
8 x+1/2,-y+1/2,z+1/2

loop_
_atom_site_label
_atom_site_type_symbol
_atom_site_fract_x
_atom_site_fract_y
_atom_site_fract_z
_atom_site_U_iso_or_equiv
_atom_site_symmetry_multiplicity
_atom_site_Wyckoff_symbol
_atom_site_occupancy
V1 V 0.0 0.0 0.0 0.00478 4 a 1.0
V2 V -0.1277 -0.49833 -0.21575 0.00824 8 f 1.0
O3 O 0.19284 0.155 0.152 0.00911 8 f 1.0
O4 O 0.08118 -0.3431 -0.05671 0.00676 8 f 1.0
O5 O 0.0 0.1926 -0.25 0.00684 4 e 1.0

loop_
_atom_site_aniso_label
_atom_site_aniso_U_11
_atom_site_aniso_U_12
_atom_site_aniso_U_13
_atom_site_aniso_U_22
_atom_site_aniso_U_23
_atom_site_aniso_U_33
V1 0.00507 8.3E-4 0.00184 0.00406 6.8E-4 0.00521
V2 0.00949 0.00165 0.00507 0.00824 0.002 0.0085
O3 0.0068 -2.0E-4 4.0E-4 0.0082 -0.0013 0.0102
O4 0.0085 -7.0E-4 0.0033 0.005 -0.001 0.0072
O5 0.0078 0.0 0.0032 0.0064 0.0 0.0068

