data_V5_O9_-_00-018-1450
#Copyright 2019 International Centre for Diffraction Data. All rights reserved.

_audit_creation_date                  2019-11-12
_audit_creation_method                'Generated by PDF-4+ 2020 4.20.0.1'

_chemical_name_systematic             'Vanadium Oxide'
_chemical_formula_moiety              'V5 O9'
_chemical_formula_sum                 'O9 V5'
_chemical_formula_weight              398.70

_cell_length_a                        5.47
_cell_length_b                        6.99
_cell_length_c                        8.343
_cell_angle_alpha                     69.52
_cell_angle_beta                      75.087
_cell_angle_gamma                     71
_cell_volume                          278.83
_cell_formula_units_Z                 2.00
_symmetry_cell_setting                triclinic
_symmetry_space_group_name_H-M        P-1
_symmetry_Int_Tables_number           2

loop_
_symmetry_equiv_pos_site_id
_symmetry_equiv_pos_as_xyz
1 x,y,z
2 -x,-y,-z

loop_
_atom_site_label
_atom_site_type_symbol
_atom_site_fract_x
_atom_site_fract_y
_atom_site_fract_z
_atom_site_U_iso_or_equiv
_atom_site_symmetry_multiplicity
_atom_site_Wyckoff_symbol
_atom_site_occupancy
O1 O 0.0204 0.1918 0.7619 . 2 i 1.0
O2 O 0.0711 0.1949 0.4195 . 2 i 1.0
O3 O 0.0823 0.1978 0.0805 . 2 i 1.0
O4 O 0.2601 0.4618 0.1351 . 2 i 1.0
V5 V 0.28097 0.17351 0.57867 . 2 i 1.0
O6 O 0.3117 0.4694 0.458 . 2 i 1.0
V7 V 0.34706 0.65572 0.20515 . 2 i 1.0
V8 V 0.3472 0.15607 0.20636 . 2 i 1.0
O9 O 0.5851 0.1327 0.3674 . 2 i 1.0
O10 O 0.5926 0.1534 0.676 . 2 i 1.0
O11 O 0.6257 0.1481 0.0207 . 2 i 1.0
O12 O 0.7184 0.5112 0.2034 . 2 i 1.0
V13 V 0.72405 0.32463 0.42386 . 2 i 1.0
V14 V 0.0 0.5 0.0 . 1 c 1.0
V15 V 0.0 0.0 0.0 . 1 a 1.0

