data_V2_O5_-_04-012-3680
#Copyright 2019 International Centre for Diffraction Data. All rights reserved.

_audit_creation_date                  2019-11-12
_audit_creation_method                'Generated by PDF-4+ 2020 4.20.0.1'

_chemical_name_systematic             'Vanadium Oxide'
_chemical_formula_moiety              'V2 O5'
_chemical_formula_sum                 'O5 V2'
_chemical_formula_weight              181.88

_cell_length_a                        11.5442
_cell_length_b                        4.383(1)
_cell_length_c                        3.571(1)
_cell_angle_alpha                     90
_cell_angle_beta                      90
_cell_angle_gamma                     90
_cell_volume                          180.69
_cell_formula_units_Z                 2.00
_symmetry_cell_setting                orthorhombic
_symmetry_space_group_name_H-M        Pmn21
_symmetry_Int_Tables_number           31

loop_
_symmetry_equiv_pos_site_id
_symmetry_equiv_pos_as_xyz
1 x,y,z
2 -x,y,z
3 -x+1/2,-y,z+1/2
4 x+1/2,-y,z+1/2

loop_
_atom_site_label
_atom_site_type_symbol
_atom_site_fract_x
_atom_site_fract_y
_atom_site_fract_z
_atom_site_U_iso_or_equiv
_atom_site_symmetry_multiplicity
_atom_site_Wyckoff_symbol
_atom_site_occupancy
V1 V 0.14878 0.3913 0.0 0.0075 4 b 1.0
O2 O 0.1457 0.0303 0.0295 0.0141 4 b 1.0
O3 O 0.3191 0.5027 0.0049 0.0095 4 b 1.0
O4 O 0.0 0.4995 0.0025 0.0127 2 a 1.0

