data_Nb12_O29_-_04-012-2087
#Copyright 2019 International Centre for Diffraction Data. All rights reserved.

_audit_creation_date                  2019-11-12
_audit_creation_method                'Generated by PDF-4+ 2020 4.20.0.1'

_chemical_name_systematic             'Niobium Oxide'
_chemical_formula_moiety              'Nb12 O29'
_chemical_formula_sum                 'Nb12 O29'
_chemical_formula_weight              1578.85

_cell_length_a                        15.6856(8)
_cell_length_b                        3.8307(2)
_cell_length_c                        20.7098(12)
_cell_angle_alpha                     90.000(3)
_cell_angle_beta                      113.056(3)
_cell_angle_gamma                     90.000(3)
_cell_volume                          1144.99
_cell_formula_units_Z                 2.00
_symmetry_cell_setting                monoclinic
_symmetry_space_group_name_H-M        A2/m
_symmetry_Int_Tables_number           12

loop_
_symmetry_equiv_pos_site_id
_symmetry_equiv_pos_as_xyz
1 x,y,z
2 -x,-y,-z
3 x,-y,z
4 -x,y,-z
5 x,y+1/2,z+1/2
6 -x,-y+1/2,-z+1/2
7 x,-y+1/2,z+1/2
8 -x,y+1/2,-z+1/2

loop_
_atom_site_label
_atom_site_type_symbol
_atom_site_fract_x
_atom_site_fract_y
_atom_site_fract_z
_atom_site_U_iso_or_equiv
_atom_site_symmetry_multiplicity
_atom_site_Wyckoff_symbol
_atom_site_occupancy
Nb1 Nb 0.1004 0.0 0.0689 . 4 i 1.0
Nb2 Nb 0.0997 0.0 0.6996 . 4 i 1.0
Nb3 Nb 0.0985 0.0 0.8822 . 4 i 1.0
Nb4 Nb 0.3725 0.0 0.1455 . 4 i 1.0
Nb5 Nb 0.3666 0.0 0.7746 . 4 i 1.0
Nb6 Nb 0.3651 0.0 0.9582 . 4 i 1.0
O7 O 0.5 0.0 0.0 . 2 d 1.0
O8 O 0.0679 0.0 0.1626 . 4 i 1.0
O9 O 0.0598 0.0 0.3665 . 4 i 1.0
O10 O 0.0799 0.0 0.5881 . 4 i 1.0
O11 O 0.0714 0.0 0.7724 . 4 i 1.0
O12 O 0.0718 0.0 0.9783 . 4 i 1.0
O13 O 0.227 0.0 0.1027 . 4 i 1.0
O14 O 0.2234 0.0 0.7299 . 4 i 1.0
O15 O 0.2115 0.0 0.9186 . 4 i 1.0
O16 O 0.3598 0.0 0.0541 . 4 i 1.0
O17 O 0.3622 0.0 0.2522 . 4 i 1.0
O18 O 0.3548 0.0 0.4588 . 4 i 1.0
O19 O 0.3615 0.0 0.6643 . 4 i 1.0
O20 O 0.3647 0.0 0.8651 . 4 i 1.0
O21 O 0.4951 0.0 0.1893 . 4 i 1.0

