data_Nb2_O5_-_04-021-8659
#Copyright 2019 International Centre for Diffraction Data. All rights reserved.

_audit_creation_date                  2019-11-12
_audit_creation_method                'Generated by PDF-4+ 2020 4.20.0.1'

_chemical_name_systematic             'Niobium Oxide'
_chemical_formula_moiety              'Nb2 O5'
_chemical_formula_sum                 'Nb2 O5'
_chemical_formula_weight              265.81

_cell_length_a                        28.612
_cell_length_b                        3.8167
_cell_length_c                        17.7781
_cell_angle_alpha                     90
_cell_angle_beta                      120.8
_cell_angle_gamma                     90
_cell_volume                          1667.61
_cell_formula_units_Z                 16.00
_symmetry_cell_setting                monoclinic
_symmetry_space_group_name_H-M        C2/m
_symmetry_Int_Tables_number           12

loop_
_symmetry_equiv_pos_site_id
_symmetry_equiv_pos_as_xyz
1 x,y,z
2 -x,-y,-z
3 x,-y,z
4 -x,y,-z
5 x+1/2,y+1/2,z
6 -x+1/2,-y+1/2,-z
7 x+1/2,-y+1/2,z
8 -x+1/2,y+1/2,-z

loop_
_atom_site_label
_atom_site_type_symbol
_atom_site_fract_x
_atom_site_fract_y
_atom_site_fract_z
_atom_site_U_iso_or_equiv
_atom_site_symmetry_multiplicity
_atom_site_Wyckoff_symbol
_atom_site_occupancy
O1 O 0.021 0.0 0.353 . 4 i 1.0
O2 O 0.07 0.0 0.085 . 4 i 1.0
O3 O 0.124 0.0 0.638 . 4 i 1.0
Nb4 Nb 0.1577 0.0 0.0995 . 4 i 1.0
O5 O 0.175 0.0 0.366 . 4 i 1.0
O6 O 0.199 0.0 0.221 . 4 i 1.0
O7 O 0.216 0.0 0.085 . 4 i 1.0
Nb8 Nb 0.2511 0.0 0.3653 . 4 i 1.0
O9 O 0.266 0.0 0.639 . 4 i 1.0
O10 O 0.29 0.0 0.503 . 4 i 1.0
Nb11 Nb 0.2903 0.0 0.0958 . 4 i 1.0
O12 O 0.3 0.0 0.336 . 4 i 1.0
O13 O 0.335 0.0 0.221 . 4 i 1.0
Nb14 Nb 0.3447 0.0 0.6306 . 4 i 1.0
O15 O 0.348 0.0 0.069 . 4 i 1.0
Nb16 Nb 0.3885 0.0 0.367 . 4 i 1.0
Nb17 Nb 0.4265 0.0 0.0968 . 4 i 1.0
O18 O 0.436 0.0 0.508 . 4 i 1.0
O19 O 0.46 0.0 0.379 . 4 i 1.0
O20 O 0.48 0.0 0.053 . 4 i 1.0
O21 O 0.484 0.0 0.229 . 4 i 1.0
Nb22 Nb 0.5194 0.0 0.3716 . 4 i 1.0
Nb23 Nb 0.5615 0.0 0.099 . 4 i 1.0
O24 O 0.585 0.0 0.352 . 4 i 1.0
O25 O 0.603 0.0 0.223 . 4 i 1.0
O26 O 0.629 0.0 0.075 . 4 i 1.0
O27 O 0.773 0.0 0.055 . 4 i 1.0
O28 O 0.909 0.0 0.05 . 4 i 1.0

