data_Nb12_O29_-_04-015-9081
#Copyright 2019 International Centre for Diffraction Data. All rights reserved.

_audit_creation_date                  2019-11-12
_audit_creation_method                'Generated by PDF-4+ 2020 4.20.0.1'

_chemical_name_systematic             'Niobium Oxide'
_chemical_formula_moiety              'Nb12 O29'
_chemical_formula_sum                 'Nb12 O29'
_chemical_formula_weight              1578.85

_cell_length_a                        31.32(5)
_cell_length_b                        3.832(6)
_cell_length_c                        20.72(4)
_cell_angle_alpha                     90.00(7)
_cell_angle_beta                      112.93(7)
_cell_angle_gamma                     90.00(7)
_cell_volume                          2290.28
_cell_formula_units_Z                 4.00
_symmetry_cell_setting                monoclinic
_symmetry_space_group_name_H-M        A2/a
_symmetry_Int_Tables_number           15

loop_
_symmetry_equiv_pos_site_id
_symmetry_equiv_pos_as_xyz
1 x,y,z
2 -x,-y,-z
3 -x+1/2,y,-z
4 x+1/2,-y,z
5 x,y+1/2,z+1/2
6 -x,-y+1/2,-z+1/2
7 -x+1/2,y+1/2,-z+1/2
8 x+1/2,-y+1/2,z+1/2

loop_
_atom_site_label
_atom_site_type_symbol
_atom_site_fract_x
_atom_site_fract_y
_atom_site_fract_z
_atom_site_U_iso_or_equiv
_atom_site_symmetry_multiplicity
_atom_site_Wyckoff_symbol
_atom_site_occupancy
Nb1 Nb 0.066 0.0 0.0369 . 8 f 1.0
Nb2 Nb 0.0665 0.0 0.2239 . 8 f 1.0
Nb3 Nb 0.0642 0.5 0.3557 . 8 f 1.0
Nb4 Nb 0.2015 0.0 0.119 . 8 f 1.0
Nb5 Nb 0.2012 0.0 0.3024 . 8 f 1.0
Nb6 Nb 0.1999 0.5 0.4329 . 8 f 1.0
O7 O 0.0 0.0 0.0 . 4 a 1.0
O8 O 0.006 0.0 0.195 . 8 f 1.0
O9 O 0.068 0.0 0.136 . 8 f 1.0
O10 O 0.071 0.0 0.333 . 8 f 1.0
O11 O 0.072 0.5 0.057 . 8 f 1.0
O12 O 0.073 0.5 0.256 . 8 f 1.0
O13 O 0.067 0.5 0.446 . 8 f 1.0
O14 O 0.141 0.0 0.075 . 8 f 1.0
O15 O 0.14 0.0 0.27 . 8 f 1.0
O16 O 0.141 0.5 0.406 . 8 f 1.0
O17 O 0.22 0.0 0.031 . 8 f 1.0
O18 O 0.208 0.0 0.22 . 8 f 1.0
O19 O 0.204 0.0 0.413 . 8 f 1.0
O20 O 0.223 0.5 0.134 . 8 f 1.0
O21 O 0.21 0.5 0.333 . 8 f 1.0

