data_04-007-2412
#Copyright 2021 International Centre for Diffraction Data. All rights reserved.

_audit_creation_date                  2021-12-16
_audit_creation_method                'Generated by PDF-4+ 2022 4.22.0.2'

_chemical_name_systematic             'Iron Oxide'
_chemical_name_common                 'iron diiron(III) oxide, magnetite lt, syn'
_chemical_formula_moiety              'Fe3 O4'
_chemical_formula_sum                 'Fe3 O4'
_chemical_formula_weight              231.53

_cell_length_a                        5.945
_cell_length_b                        5.912
_cell_length_c                        8.388
_cell_angle_alpha                     90
_cell_angle_beta                      90
_cell_angle_gamma                     90
_cell_formula_units_Z                 4
_cell_volume                          294.81
_symmetry_cell_setting                orthorhombic
_symmetry_space_group_name_H-M        Imma
_symmetry_Int_Tables_number           74

loop_
_symmetry_equiv_pos_site_id
_symmetry_equiv_pos_as_xyz
1 x,y,z
2 -x,-y,-z
3 x,-y,-z
4 -x,y,z
5 x,y+1/2,-z
6 -x,-y+1/2,z
7 x,-y+1/2,z
8 -x,y+1/2,-z
9 x+1/2,y+1/2,z+1/2
10 -x+1/2,-y+1/2,-z+1/2
11 x+1/2,-y+1/2,-z+1/2
12 -x+1/2,y+1/2,z+1/2
13 x+1/2,y,-z+1/2
14 -x+1/2,-y,z+1/2
15 x+1/2,-y,z+1/2
16 -x+1/2,y,-z+1/2

loop_
_atom_site_label
_atom_site_type_symbol
_atom_site_fract_x
_atom_site_fract_y
_atom_site_fract_z
_atom_site_U_iso_or_equiv
_atom_site_symmetry_multiplicity
_atom_site_Wyckoff_symbol
_atom_site_occupancy
Fe1 Fe 0.0 0.0 0.5 . 4 b 0.5
Fe2 Fe 0.25 0.25 0.75 . 4 d 0.5
O3 O 0.0 0.5237 0.2445 . 8 h 1.0
O4 O 0.2445 0.25 -0.0154 . 8 i 1.0
Fe5 Fe 0.0 0.25 0.125 . 4 e 1.0
Fe6 Fe 0.0 0.0 0.5 . 4 b 0.5
Fe7 Fe 0.25 0.25 0.75 . 4 d 0.5

