data_04-022-1423
#Copyright 2021 International Centre for Diffraction Data. All rights reserved.

_audit_creation_date                  2021-12-16
_audit_creation_method                'Generated by PDF-4+ 2022 4.22.0.2'

_chemical_name_systematic             'Iron Oxide'
_chemical_formula_moiety              'Fe13 O19'
_chemical_formula_sum                 'Fe13 O19'
_chemical_formula_weight              1029.97

_cell_length_a                        19.233(2)
_cell_length_b                        2.5820(13)
_cell_length_c                        9.550(11)
_cell_angle_alpha                     90
_cell_angle_beta                      118.39(3)
_cell_angle_gamma                     90
_cell_formula_units_Z                 2
_cell_volume                          417.21
_symmetry_cell_setting                monoclinic
_symmetry_space_group_name_H-M        C2/m
_symmetry_Int_Tables_number           12

loop_
_symmetry_equiv_pos_site_id
_symmetry_equiv_pos_as_xyz
1 x,y,z
2 -x,-y,-z
3 x,-y,z
4 -x,y,-z
5 x+1/2,y+1/2,z
6 -x+1/2,-y+1/2,-z
7 x+1/2,-y+1/2,z
8 -x+1/2,y+1/2,-z

loop_
_atom_site_label
_atom_site_type_symbol
_atom_site_fract_x
_atom_site_fract_y
_atom_site_fract_z
_atom_site_U_iso_or_equiv
_atom_site_symmetry_multiplicity
_atom_site_Wyckoff_symbol
_atom_site_occupancy
Fe1 Fe 0.4267 -0.5 0.4606 . 4 i 1.0
Fe2 Fe 0.2641 0.0 0.3647 . 4 i 1.0
Fe3 Fe 0.4645 -1.0 0.2289 . 4 i 1.0
Fe4 Fe 0.6273 -1.0 0.3428 . 4 i 1.0
Fe5 Fe 0.3501 0.0 -0.0691 . 4 i 1.0
Fe6 Fe 0.5 -0.5 0.0 . 2 a 1.0
Fe7 Fe 0.3142 0.0 0.1576 . 4 i 1.0
O8 O 0.5 0.0 0.5 . 2 d 1.0
O9 O 0.4017 -0.5 0.258 . 4 i 1.0
O10 O 0.3012 0.5 0.5243 . 4 i 1.0
O11 O 0.1609 0.0 0.2278 . 4 i 1.0
O12 O 0.4525 -0.5 0.664 . 4 i 1.0
O13 O 0.367 0.0 0.426 . 4 i 1.0
O14 O 0.3024 -0.5 -0.003 . 4 i 1.0
O15 O 0.2469 0.0 -0.2223 . 4 i 1.0
O16 O 0.5692 -0.5 -0.059 . 4 i 1.0
O17 O 0.4566 0.0 -0.13 . 4 i 1.0

