data_04-017-0339
#Copyright 2021 International Centre for Diffraction Data. All rights reserved.

_audit_creation_date                  2021-12-15
_audit_creation_method                'Generated by PDF-4+ 2022 4.22.0.2'

_chemical_name_systematic             'Vanadyl Vanadium Oxide'
_chemical_formula_moiety              '( V O )2 ( V2 O7 )'
_chemical_formula_sum                 'O9 V4'
_chemical_formula_weight              347.76

_cell_length_a                        10.356(2)
_cell_length_b                        8.174(1)
_cell_length_c                        16.559(3)
_cell_angle_alpha                     90
_cell_angle_beta                      90
_cell_angle_gamma                     90
_cell_formula_units_Z                 8
_cell_volume                          1401.72
_symmetry_cell_setting                orthorhombic
_symmetry_space_group_name_H-M        Cmcm
_symmetry_Int_Tables_number           63

loop_
_symmetry_equiv_pos_site_id
_symmetry_equiv_pos_as_xyz
1 x,y,z
2 -x,-y,-z
3 x,-y,-z
4 -x,y,z
5 x,y,-z+1/2
6 -x,-y,z+1/2
7 x,-y,z+1/2
8 -x,y,-z+1/2
9 x+1/2,y+1/2,z
10 -x+1/2,-y+1/2,-z
11 x+1/2,-y+1/2,-z
12 -x+1/2,y+1/2,z
13 x+1/2,y+1/2,-z+1/2
14 -x+1/2,-y+1/2,z+1/2
15 x+1/2,-y+1/2,z+1/2
16 -x+1/2,y+1/2,-z+1/2

loop_
_atom_site_label
_atom_site_type_symbol
_atom_site_fract_x
_atom_site_fract_y
_atom_site_fract_z
_atom_site_U_iso_or_equiv
_atom_site_symmetry_multiplicity
_atom_site_Wyckoff_symbol
_atom_site_occupancy
V1 V 0.5 0.205 0.156 . 8 f 1.0
V2 V 0.0 0.353 0.13 . 8 f 1.0
V3 V 0.209 0.013 0.096 . 16 h 1.0
O4 O 0.0 0.32 0.25 . 4 c 1.0
O5 O 0.5 0.209 0.25 . 4 c 1.0
O6 O 0.204 0.0 0.0 . 8 e 1.0
O7 O 0.0 0.338 0.001 . 8 f 1.0
O8 O 0.371 0.002 0.132 . 16 h 1.0
O9 O 0.138 0.191 0.12 . 16 h 1.0
O10 O 0.366 0.318 0.13 . 16 h 1.0

