data_04-007-1060
#Copyright 2021 International Centre for Diffraction Data. All rights reserved.

_audit_creation_date                  2021-12-16
_audit_creation_method                'Generated by PDF-4+ 2022 4.22.0.2'

_chemical_name_systematic             'Iron Oxide'
_chemical_name_common                 'iron diiron(III) oxide, magnetite orthorhombic, syn'
_chemical_formula_moiety              'Fe3 O4'
_chemical_formula_sum                 'Fe3 O4'
_chemical_formula_weight              231.53

_cell_length_a                        5.934
_cell_length_b                        5.926
_cell_length_c                        16.752
_cell_angle_alpha                     90
_cell_angle_beta                      90
_cell_angle_gamma                     90
_cell_formula_units_Z                 8
_cell_volume                          589.08
_symmetry_cell_setting                orthorhombic
_symmetry_space_group_name_H-M        Pmca
_symmetry_Int_Tables_number           57

loop_
_symmetry_equiv_pos_site_id
_symmetry_equiv_pos_as_xyz
1 x,y,z
2 -x,-y,-z
3 x+1/2,-y,-z
4 -x+1/2,y,z
5 -x,y,-z+1/2
6 x,-y,z+1/2
7 -x+1/2,-y,z+1/2
8 x+1/2,y,-z+1/2

loop_
_atom_site_label
_atom_site_type_symbol
_atom_site_fract_x
_atom_site_fract_y
_atom_site_fract_z
_atom_site_U_iso_or_equiv
_atom_site_symmetry_multiplicity
_atom_site_Wyckoff_symbol
_atom_site_occupancy
Fe1 Fe 0.25 0.0049 0.0635 . 4 d 1.0
Fe2 Fe 0.25 0.5067 0.1887 . 4 d 1.0
Fe3 Fe 0.0 0.5 0.0 . 4 b 1.0
Fe4 Fe 0.0 0.0099 0.25 . 4 c 1.0
Fe5 Fe 0.25 0.2643 0.3789 . 4 d 1.0
Fe6 Fe 0.25 0.7549 0.3746 . 4 d 1.0
O7 O 0.25 0.263 -0.0027 . 4 d 1.0
O8 O 0.25 0.7477 -9.0E-4 . 4 d 1.0
O9 O 0.25 0.2461 0.254 . 4 d 1.0
O10 O 0.25 0.7696 0.2527 . 4 d 1.0
O11 O -0.0116 0.0089 0.1295 . 8 e 1.0
O12 O -0.0067 0.505 0.1244 . 8 e 1.0

