data_03-065-0390
#Copyright 2021 International Centre for Diffraction Data. All rights reserved.

_audit_creation_date                  2021-12-16
_audit_creation_method                'Generated by PDF-4+ 2022 4.22.0.2'

_chemical_name_systematic             'Iron Oxide'
_chemical_formula_moiety              'Fe2 O3'
_chemical_formula_sum                 'Fe2 O3'
_chemical_formula_weight              159.69

_cell_length_a                        8.3396(4)
_cell_length_b                        8.3396(4)
_cell_length_c                        8.3221(7)
_cell_angle_alpha                     90.0
_cell_angle_beta                      90.0
_cell_angle_gamma                     90.0
_cell_formula_units_Z                 11.2
_cell_volume                          578.79
_symmetry_cell_setting                tetragonal
_symmetry_space_group_name_H-M        P41212
_symmetry_Int_Tables_number           92

loop_
_symmetry_equiv_pos_site_id
_symmetry_equiv_pos_as_xyz
1 x,y,z
2 -x,-y,z+1/2
3 -y+1/2,x+1/2,z+1/4
4 y+1/2,-x+1/2,z+3/4
5 y,x,-z
6 -y,-x,-z+1/2
7 -x+1/2,y+1/2,-z+1/4
8 x+1/2,-y+1/2,-z+3/4

loop_
_atom_site_label
_atom_site_type_symbol
_atom_site_fract_x
_atom_site_fract_y
_atom_site_fract_z
_atom_site_U_iso_or_equiv
_atom_site_symmetry_multiplicity
_atom_site_Wyckoff_symbol
_atom_site_occupancy
Fe1 Fe 0.14 0.14 0.0 . . . 0.33
Fe2 Fe 0.364 0.867 0.984 . . . 1.0
Fe3 Fe 0.62 0.62 0.0 . . . 1.0
Fe4 Fe 0.744 0.996 0.12 . . . 1.0
O5 O 0.119 0.377 0.995 . . . 1.0
O6 O 0.137 0.861 0.007 . . . 1.0
O7 O 0.383 0.631 0.997 . . . 1.0
O8 O 0.615 0.869 0.986 . . . 1.0

