data_04-020-2559
#Copyright 2021 International Centre for Diffraction Data. All rights reserved.

_audit_creation_date                  2021-12-16
_audit_creation_method                'Generated by PDF-4+ 2022 4.22.0.2'

_chemical_name_systematic             'Vanadium Oxide'
_chemical_formula_moiety              'V7 O4'
_chemical_formula_sum                 'O4 V7'
_chemical_formula_weight              420.59

_cell_length_a                        9.52
_cell_length_b                        2.95
_cell_length_c                        7.732
_cell_angle_alpha                     90
_cell_angle_beta                      90.67
_cell_angle_gamma                     90
_cell_formula_units_Z                 2
_cell_volume                          217.13
_symmetry_cell_setting                monoclinic
_symmetry_space_group_name_H-M        C2
_symmetry_Int_Tables_number           5

loop_
_symmetry_equiv_pos_site_id
_symmetry_equiv_pos_as_xyz
1 x,y,z
2 -x,y,-z
3 x+1/2,y+1/2,z
4 -x+1/2,y+1/2,-z

loop_
_atom_site_label
_atom_site_type_symbol
_atom_site_fract_x
_atom_site_fract_y
_atom_site_fract_z
_atom_site_U_iso_or_equiv
_atom_site_symmetry_multiplicity
_atom_site_Wyckoff_symbol
_atom_site_occupancy
V1 V 0.0 0.0 0.0 . 2 a 1.0
V2 V 0.274 0.0 0.179 . 4 c 1.0
V3 V 0.561 0.0 0.316 . 4 c 1.0
V4 V 0.845 0.0 0.463 . 4 c 1.0
O5 O 0.173 0.5 0.071 . 4 c 1.0
O6 O 0.429 0.5 0.214 . 4 c 1.0

