data_04-013-3305
#Copyright 2021 International Centre for Diffraction Data. All rights reserved.

_audit_creation_date                  2021-12-16
_audit_creation_method                'Generated by PDF-4+ 2022 4.22.0.2'

_chemical_name_systematic             'Iron Oxide'
_chemical_name_common                 '\b-Fe2 O3'
_chemical_formula_moiety              'Fe2 O3'
_chemical_formula_sum                 'Fe2 O3'
_chemical_formula_weight              159.69

_cell_length_a                        5.03
_cell_length_b                        5.03
_cell_length_c                        13.73
_cell_angle_alpha                     90
_cell_angle_beta                      90
_cell_angle_gamma                     120
_cell_formula_units_Z                 6
_cell_volume                          300.84
_symmetry_cell_setting                hexagonal
_symmetry_space_group_name_H-M        P3
_symmetry_Int_Tables_number           143

loop_
_symmetry_equiv_pos_site_id
_symmetry_equiv_pos_as_xyz
1 x,y,z
2 -y,x-y,z
3 -x+y,-x,z

loop_
_atom_site_label
_atom_site_type_symbol
_atom_site_fract_x
_atom_site_fract_y
_atom_site_fract_z
_atom_site_U_iso_or_equiv
_atom_site_symmetry_multiplicity
_atom_site_Wyckoff_symbol
_atom_site_occupancy
Fe1 Fe 0.0 0.0 0.08333 . 1 a 1.0
Fe2 Fe 0.0 0.0 0.41666 . 1 a 1.0
Fe3 Fe 0.0 0.0 0.58333 . 1 a 1.0
Fe4 Fe 0.0 0.0 0.91666 . 1 a 1.0
Fe5 Fe 0.33333 0.66666 0.08333 . 1 b 1.0
Fe6 Fe 0.66666 0.33333 0.91666 . 1 c 1.0
Fe7 Fe 0.33333 0.0 0.20833 . 3 d 1.0
Fe8 Fe 0.66666 0.0 0.70833 . 3 d 1.0
O9 O 0.33333 0.0 0.0 . 3 d 1.0
O10 O 0.66666 0.0 0.16666 . 3 d 1.0
O11 O 0.33333 0.0 0.33333 . 3 d 1.0
O12 O 0.66666 0.0 0.5 . 3 d 1.0
O13 O 0.33333 0.0 0.66666 . 3 d 1.0
O14 O 0.66666 0.0 0.83333 . 3 d 1.0

