data_04-007-0694
#Copyright 2021 International Centre for Diffraction Data. All rights reserved.

_audit_creation_date                  2021-12-16
_audit_creation_method                'Generated by PDF-4+ 2022 4.22.0.2'

_chemical_name_systematic             'Copper Oxide'
_chemical_formula_moiety              'Cu64 O'
_chemical_formula_sum                 'Cu64 O'
_chemical_formula_weight              4082.94

_cell_length_a                        9.74
_cell_length_b                        10.58
_cell_length_c                        16.2
_cell_angle_alpha                     90
_cell_angle_beta                      90
_cell_angle_gamma                     90
_cell_formula_units_Z                 2
_cell_volume                          1669.40
_symmetry_cell_setting                orthorhombic
_symmetry_space_group_name_H-M        Bmm2
_symmetry_Int_Tables_number           38

loop_
_symmetry_equiv_pos_site_id
_symmetry_equiv_pos_as_xyz
1 x,y,z
2 -x,-y,z
3 x,-y,z
4 -x,y,z
5 x+1/2,y,z+1/2
6 -x+1/2,-y,z+1/2
7 x+1/2,-y,z+1/2
8 -x+1/2,y,z+1/2

loop_
_atom_site_label
_atom_site_type_symbol
_atom_site_fract_x
_atom_site_fract_y
_atom_site_fract_z
_atom_site_U_iso_or_equiv
_atom_site_symmetry_multiplicity
_atom_site_Wyckoff_symbol
_atom_site_occupancy
Cu1 Cu 0.125 0.25 -0.1875 . 8 f 1.0
Cu2 Cu 0.125 0.25 -0.4375 . 8 f 1.0
Cu3 Cu 0.125 0.25 -0.6875 . 8 f 1.0
Cu4 Cu 0.125 0.25 -0.9375 . 8 f 1.0
Cu5 Cu 0.25 0.125 -0.8125 . 8 f 1.0
Cu6 Cu 0.25 0.125 -0.5625 . 8 f 1.0
Cu7 Cu 0.25 0.375 -0.8125 . 8 f 1.0
Cu8 Cu 0.25 0.375 -0.5625 . 8 f 1.0
Cu9 Cu 0.125 0.5 -0.1875 . 4 e 1.0
Cu10 Cu 0.125 0.5 -0.4375 . 4 e 1.0
Cu11 Cu 0.125 0.5 -0.6875 . 4 e 1.0
Cu12 Cu 0.125 0.5 -0.9375 . 4 e 1.0
Cu13 Cu 0.125 0.0 -0.1875 . 4 d 1.0
Cu14 Cu 0.125 0.0 -0.4375 . 4 d 1.0
Cu15 Cu 0.125 0.0 -0.6875 . 4 d 1.0
Cu16 Cu 0.125 0.0 -0.9375 . 4 d 1.0
Cu17 Cu 0.0 0.125 -0.0625 . 4 c 1.0
Cu18 Cu 0.0 0.125 -0.3125 . 4 c 1.0
Cu19 Cu 0.0 0.125 -0.5625 . 4 c 1.0
Cu20 Cu 0.0 0.125 -0.8125 . 4 c 1.0
Cu21 Cu 0.0 0.375 -0.0625 . 4 c 1.0
Cu22 Cu 0.0 0.375 -0.3125 . 4 c 1.0
Cu23 Cu 0.0 0.375 -0.5625 . 4 c 1.0
Cu24 Cu 0.0 0.375 -0.8125 . 4 c 1.0
O25 O 0.0 0.0 0.0 . 2 a 1.0

