data_01-082-4445
#Copyright 2021 International Centre for Diffraction Data. All rights reserved.

_audit_creation_date                  2021-12-16
_audit_creation_method                'Generated by PDF-4+ 2022 4.22.0.2'

_chemical_name_systematic             'Vanadium Oxide'
_chemical_formula_moiety              'V9 O17'
_chemical_formula_sum                 'O17 V9'
_chemical_formula_weight              730.46

_cell_length_a                        5.4219(7)
_cell_length_b                        7.0142(9)
_cell_length_c                        14.5252(19)
_cell_angle_alpha                     97.0310(10)
_cell_angle_beta                      90.9900(10)
_cell_angle_gamma                     108.9630(10)
_cell_formula_units_Z                 2
_cell_volume                          517.53
_symmetry_cell_setting                triclinic
_symmetry_space_group_name_H-M        P-1
_symmetry_Int_Tables_number           2

loop_
_symmetry_equiv_pos_site_id
_symmetry_equiv_pos_as_xyz
1 x,y,z
2 -x,-y,-z

loop_
_atom_site_label
_atom_site_type_symbol
_atom_site_fract_x
_atom_site_fract_y
_atom_site_fract_z
_atom_site_U_iso_or_equiv
_atom_site_symmetry_multiplicity
_atom_site_Wyckoff_symbol
_atom_site_occupancy
O1 O 0.1232 0.2899 0.0374 0.00477 2 i 1.0
O2 O 0.5352 0.5896 0.1539 0.00477 2 i 1.0
O3 O 0.7146 0.3074 0.1946 0.00477 2 i 1.0
O4 O 0.1309 0.6051 0.3079 0.00477 2 i 1.0
O5 O 0.5385 0.8922 0.4296 0.00477 2 i 1.0
O6 O 0.3605 0.6656 -0.012 0.00477 2 i 1.0
O7 O 0.7737 0.9629 0.1041 0.00477 2 i 1.0
O8 O 0.1952 0.2595 0.2226 0.00477 2 i 1.0
O9 O 0.6151 0.5517 0.3389 0.00477 2 i 1.0
O10 O 0.0363 0.8183 0.4568 0.00477 2 i 1.0
O11 O 0.2954 0.009 0.0799 0.00477 2 i 1.0
O12 O 0.0536 0.6338 0.1272 0.00477 2 i 1.0
O13 O 0.4707 0.9378 0.2456 0.00477 2 i 1.0
O14 O 0.8883 0.2376 0.3614 0.00477 2 i 1.0
O15 O 0.9488 0.8881 0.2723 0.00477 2 i 1.0
O16 O 0.3454 0.1856 0.4031 0.00477 2 i 1.0
O17 O 0.7053 0.4596 0.5211 0.00477 2 i 1.0
V18 V 0.6901 0.1882 0.45511 0.00483 2 i 1.0
V19 V 0.6982 0.691 0.45978 0.0057 2 i 1.0
V20 V 0.2509 0.8941 0.33894 0.0044 2 i 1.0
V21 V 0.2532 0.4033 0.34157 0.00375 2 i 1.0
V22 V 0.8296 0.5934 0.2276 0.00427 2 i 1.0
V23 V 0.83 0.0911 0.22472 0.00535 2 i 1.0
V24 V 0.4149 0.2963 0.11481 0.00562 2 i 1.0
V25 V 0.4077 0.7929 0.11255 0.00544 2 i 1.0
V26 V 0.0 0.0 0.0 0.00551 1 a 1.0
V27 V 0.0 0.5 0.0 0.00583 1 c 1.0

loop_
_atom_site_aniso_label
_atom_site_aniso_U_11
_atom_site_aniso_U_12
_atom_site_aniso_U_13
_atom_site_aniso_U_22
_atom_site_aniso_U_23
_atom_site_aniso_U_33
O1 0.0046 0.0015 4.0E-4 0.0043 5.0E-4 0.0054
O2 0.0046 0.0015 4.0E-4 0.0043 5.0E-4 0.0054
O3 0.0046 0.0015 4.0E-4 0.0043 5.0E-4 0.0054
O4 0.0046 0.0015 4.0E-4 0.0043 5.0E-4 0.0054
O5 0.0046 0.0015 4.0E-4 0.0043 5.0E-4 0.0054
O6 0.0046 0.0015 4.0E-4 0.0043 5.0E-4 0.0054
O7 0.0046 0.0015 4.0E-4 0.0043 5.0E-4 0.0054
O8 0.0046 0.0015 4.0E-4 0.0043 5.0E-4 0.0054
O9 0.0046 0.0015 4.0E-4 0.0043 5.0E-4 0.0054
O10 0.0046 0.0015 4.0E-4 0.0043 5.0E-4 0.0054
O11 0.0046 0.0015 4.0E-4 0.0043 5.0E-4 0.0054
O12 0.0046 0.0015 4.0E-4 0.0043 5.0E-4 0.0054
O13 0.0046 0.0015 4.0E-4 0.0043 5.0E-4 0.0054
O14 0.0046 0.0015 4.0E-4 0.0043 5.0E-4 0.0054
O15 0.0046 0.0015 4.0E-4 0.0043 5.0E-4 0.0054
O16 0.0046 0.0015 4.0E-4 0.0043 5.0E-4 0.0054
O17 0.0046 0.0015 4.0E-4 0.0043 5.0E-4 0.0054
V18 0.0053 0.0015 0.0017 0.0044 3.0E-4 0.0047
V19 0.0055 0.0023 0.0018 0.0056 0.0016 0.0066
V20 0.005 0.0013 -0.0015 0.004 -2.0E-4 0.0038
V21 0.004 0.001 0.0 0.0031 0.0 0.0039
V22 0.0052 0.0023 0.0 0.0044 -3.0E-4 0.0035
V23 0.0055 0.0015 3.0E-4 0.0039 0.0018 0.0069
V24 0.0057 0.0018 3.0E-4 0.0042 4.0E-4 0.007
V25 0.006 0.0029 0.0012 0.0055 0.0012 0.0057
V26 0.0066 0.0023 -9.0E-4 0.0042 0.0012 0.0062
V27 0.0057 0.0019 0.0025 0.0056 0.002 0.0066

