data_04-007-0691
#Copyright 2021 International Centre for Diffraction Data. All rights reserved.

_audit_creation_date                  2021-12-16
_audit_creation_method                'Generated by PDF-4+ 2022 4.22.0.2'

_chemical_name_systematic             'Copper Oxide'
_chemical_name_common                 'octacopper oxide'
_chemical_formula_moiety              'Cu8 O'
_chemical_formula_sum                 'Cu8 O'
_chemical_formula_weight              524.37

_cell_length_a                        5.47
_cell_length_b                        6.02
_cell_length_c                        9.34
_cell_angle_alpha                     90
_cell_angle_beta                      90
_cell_angle_gamma                     90
_cell_formula_units_Z                 2
_cell_volume                          307.56
_symmetry_cell_setting                orthorhombic
_symmetry_space_group_name_H-M        Bmm2
_symmetry_Int_Tables_number           38

loop_
_symmetry_equiv_pos_site_id
_symmetry_equiv_pos_as_xyz
1 x,y,z
2 -x,-y,z
3 x,-y,z
4 -x,y,z
5 x+1/2,y,z+1/2
6 -x+1/2,-y,z+1/2
7 x+1/2,-y,z+1/2
8 -x+1/2,y,z+1/2

loop_
_atom_site_label
_atom_site_type_symbol
_atom_site_fract_x
_atom_site_fract_y
_atom_site_fract_z
_atom_site_U_iso_or_equiv
_atom_site_symmetry_multiplicity
_atom_site_Wyckoff_symbol
_atom_site_occupancy
Cu1 Cu 0.25 0.5 -0.375 . 4 e 1.0
Cu2 Cu 0.25 0.0 -0.375 . 4 d 1.0
Cu3 Cu 0.0 0.25 -0.125 . 4 c 1.0
Cu4 Cu 0.0 0.75 -0.625 . 4 c 1.0
O5 O 0.0 0.0 0.0 . 2 a 1.0

