data_Mn2_O7_-_04-007-1279
#Copyright 2019 International Centre for Diffraction Data. All rights reserved.

_audit_creation_date                  2019-11-12
_audit_creation_method                'Generated by PDF-4+ 2020 4.20.0.1'

_chemical_name_systematic             'Manganese Oxide'
_chemical_name_common                 'dimanganese(VII) oxide'
_chemical_formula_moiety              'Mn2 O7'
_chemical_formula_sum                 'Mn2 O7'
_chemical_formula_weight              221.87
_chemical_melting_point               279.09999999999997

_cell_length_a                        6.7956(4)
_cell_length_b                        16.687(2)
_cell_length_c                        9.454(3)
_cell_angle_alpha                     90.00(1)
_cell_angle_beta                      100.20(1)
_cell_angle_gamma                     90.00(1)
_cell_volume                          1055.12
_cell_formula_units_Z                 8.00
_symmetry_cell_setting                monoclinic
_symmetry_space_group_name_H-M        P21/c
_symmetry_Int_Tables_number           14

loop_
_symmetry_equiv_pos_site_id
_symmetry_equiv_pos_as_xyz
1 x,y,z
2 -x,-y,-z
3 -x,y+1/2,-z+1/2
4 x,-y+1/2,z+1/2

loop_
_atom_site_label
_atom_site_type_symbol
_atom_site_fract_x
_atom_site_fract_y
_atom_site_fract_z
_atom_site_U_iso_or_equiv
_atom_site_symmetry_multiplicity
_atom_site_Wyckoff_symbol
_atom_site_occupancy
Mn1 Mn 0.35615 0.25328 0.54764 0.02612 4 e 1.0
Mn2 Mn 0.07795 0.74773 0.61091 0.02605 4 e 1.0
Mn3 Mn -0.21224 0.50201 0.67239 0.0259 4 e 1.0
Mn4 Mn 0.22184 0.50137 0.83029 0.02588 4 e 1.0
O5 O 0.1389 0.2006 0.4704 0.02874 4 e 1.0
O6 O 0.4264 0.3066 0.4259 0.03807 4 e 1.0
O7 O 0.5212 0.1897 0.6088 0.04169 4 e 1.0
O8 O 0.3021 0.3086 0.6726 0.041 4 e 1.0
O9 O -0.1414 0.3112 0.5044 0.03806 4 e 1.0
O10 O -0.2471 0.1888 0.3381 0.04062 4 e 1.0
O11 O -0.0254 0.3015 0.2571 0.03939 4 e 1.0
O12 O 0.0047 0.4495 0.7519 0.02968 4 e 1.0
O13 O -0.2746 0.5599 0.7898 0.04061 4 e 1.0
O14 O -0.3805 0.4386 0.6194 0.04293 4 e 1.0
O15 O -0.1608 0.5523 0.5412 0.03943 4 e 1.0
O16 O 0.292 0.5549 0.7098 0.03824 4 e 1.0
O17 O 0.6147 0.5625 0.1095 0.04099 4 e 1.0
O18 O 0.1676 0.5557 0.9557 0.04394 4 e 1.0

loop_
_atom_site_aniso_label
_atom_site_aniso_U_11
_atom_site_aniso_U_12
_atom_site_aniso_U_13
_atom_site_aniso_U_22
_atom_site_aniso_U_23
_atom_site_aniso_U_33
Mn1 0.0241 -7.0E-4 0.0013 0.0299 8.0E-4 0.0233
Mn2 0.024 -7.0E-4 0.0024 0.03 0.0014 0.0235
Mn3 0.0237 -7.0E-4 0.0026 0.0294 4.0E-4 0.024
Mn4 0.0246 -9.0E-4 0.0013 0.0298 -0.0011 0.0222
O5 0.0224 -0.002 0.0017 0.0316 7.0E-4 0.0311
O6 0.0339 0.0083 0.0065 0.0469 -0.0064 0.0336
O7 0.0298 0.0023 -0.0077 0.0405 0.0065 0.0494
O8 0.043 -0.0133 0.0067 0.0472 8.0E-4 0.0328
O9 0.0353 -0.0065 0.008 0.0467 0.0098 0.0329
O10 0.0282 -0.0025 -0.0029 0.0414 -0.0041 0.0487
O11 0.0423 0.0072 0.0095 0.0473 0.001 0.0297
O12 0.0278 -0.001 7.0E-4 0.0286 -0.0012 0.031
O13 0.0419 -0.0082 0.0075 0.0493 0.0098 0.031
O14 0.0292 -0.0025 -0.0048 0.0427 -0.0065 0.0525
O15 0.0448 0.0073 0.0076 0.0426 0.0014 0.0312
O16 0.0377 0.0054 0.0059 0.0444 -0.0091 0.0325
O17 0.0331 0.0033 -0.0057 0.0417 0.0051 0.0436
O18 0.0493 -0.0119 0.0091 0.0506 -0.0025 0.0326

