data_V2_O5_-_00-066-0206
#Copyright 2019 International Centre for Diffraction Data. All rights reserved.

_audit_creation_date                  2019-11-12
_audit_creation_method                'Generated by PDF-4+ 2020 4.20.0.1'

_chemical_name_systematic             'Vanadium Oxide'
_chemical_name_common                 'vanadium pentaoxide, \d-V2 O5'
_chemical_formula_moiety              'V2 O5'
_chemical_formula_sum                 'O5 V2'
_chemical_formula_weight              181.88

_cell_length_a                        11.9695(1)
_cell_length_b                        4.69915(5)
_cell_length_c                        5.32642(6)
_cell_angle_alpha                     90.0
_cell_angle_beta                      104.327(1)
_cell_angle_gamma                     90.0
_cell_volume                          290.27
_cell_formula_units_Z                 4.00
_symmetry_cell_setting                monoclinic
_symmetry_space_group_name_H-M        C12/c1
_symmetry_Int_Tables_number           15

loop_
_symmetry_equiv_pos_site_id
_symmetry_equiv_pos_as_xyz
1 x,y,z
2 -x,-y,-z
3 -x,y,-z+1/2
4 x,-y,z+1/2
5 x+1/2,y+1/2,z
6 -x+1/2,-y+1/2,-z
7 -x+1/2,y+1/2,-z+1/2
8 x+1/2,-y+1/2,z+1/2

loop_
_atom_site_label
_atom_site_type_symbol
_atom_site_fract_x
_atom_site_fract_y
_atom_site_fract_z
_atom_site_U_iso_or_equiv
_atom_site_symmetry_multiplicity
_atom_site_Wyckoff_symbol
_atom_site_occupancy
V1 V 0.14315 0.2624 0.74462 0.0103 . . 1.0
O2 O 0.0 0.3839 0.75 0.0035 . . 1.0
O3 O 0.1073 0.0698 0.4789 0.0037 . . 1.0
O4 O 0.2028 0.5702 0.6309 0.006 . . 1.0

