data_Nb12_O29_-_01-075-2949
#Copyright 2019 International Centre for Diffraction Data. All rights reserved.

_audit_creation_date                  2019-11-12
_audit_creation_method                'Generated by PDF-4+ 2020 4.20.0.1'

_chemical_name_systematic             'Niobium Oxide'
_chemical_formula_moiety              'Nb12 O29'
_chemical_formula_sum                 'Nb12 O29'
_chemical_formula_weight              1578.85

_cell_length_a                        15.6920(1)
_cell_length_b                        3.8303(2)
_cell_length_c                        20.7171(9)
_cell_angle_alpha                     90.000(3)
_cell_angle_beta                      113.112(3)
_cell_angle_gamma                     90.000(3)
_cell_volume                          1145.26
_cell_formula_units_Z                 2.00
_symmetry_cell_setting                monoclinic
_symmetry_space_group_name_H-M        A1m1
_symmetry_Int_Tables_number           8

loop_
_symmetry_equiv_pos_site_id
_symmetry_equiv_pos_as_xyz
1 x,y,z
2 x,-y,z
3 x,y+1/2,z+1/2
4 x,-y+1/2,z+1/2

loop_
_atom_site_label
_atom_site_type_symbol
_atom_site_fract_x
_atom_site_fract_y
_atom_site_fract_z
_atom_site_U_iso_or_equiv
_atom_site_symmetry_multiplicity
_atom_site_Wyckoff_symbol
_atom_site_occupancy
Nb1 Nb 0.1154 0.0 0.0709 . 2 a 1.0
Nb2 Nb 0.0905 0.0 0.6849 . 2 a 1.0
Nb3 Nb 0.0939 0.0 0.8841 . 2 a 1.0
Nb4 Nb 0.3536 0.0 0.1437 . 2 a 1.0
Nb5 Nb 0.3582 0.0 0.7658 . 2 a 1.0
Nb6 Nb 0.3641 0.0 0.963 . 2 a 1.0
Nb7 Nb 0.9079 0.0 0.936 . 2 a 1.0
Nb8 Nb 0.8926 0.0 0.2958 . 2 a 1.0
Nb9 Nb 0.9106 0.0 0.1177 . 2 a 1.0
Nb10 Nb 0.6342 0.0 0.8582 . 2 a 1.0
Nb11 Nb 0.6268 0.0 0.2201 . 2 a 1.0
Nb12 Nb 0.6185 0.0 0.037 . 2 a 1.0
O13 O 0.4812 0.0 -0.0055 . 2 a 1.0
O14 O 0.0776 0.0 0.1719 . 2 a 1.0
O15 O 0.0781 0.0 0.3746 . 2 a 1.0
O16 O 0.0793 0.0 0.5862 . 2 a 1.0
O17 O 0.0861 0.0 0.7858 . 2 a 1.0
O18 O 0.0829 0.0 0.9796 . 2 a 1.0
O19 O 0.2115 0.0 0.1023 . 2 a 1.0
O20 O 0.2091 0.0 0.7229 . 2 a 1.0
O21 O 0.2251 0.0 0.9231 . 2 a 1.0
O22 O 0.3689 0.0 0.0537 . 2 a 1.0
O23 O 0.368 0.0 0.2465 . 2 a 1.0
O24 O 0.3677 0.0 0.4607 . 2 a 1.0
O25 O 0.3639 0.0 0.6627 . 2 a 1.0
O26 O 0.369 0.0 0.8657 . 2 a 1.0
O27 O 0.5113 0.0 0.1931 . 2 a 1.0
O28 O 0.9331 0.0 0.8369 . 2 a 1.0
O29 O 0.9326 0.0 0.6288 . 2 a 1.0
O30 O 0.9318 0.0 0.4263 . 2 a 1.0
O31 O 0.9313 0.0 0.2248 . 2 a 1.0
O32 O 0.941 0.0 0.032 . 2 a 1.0
O33 O 0.7756 0.0 0.9041 . 2 a 1.0
O34 O 0.7934 0.0 0.2677 . 2 a 1.0
O35 O 0.7516 0.0 0.0756 . 2 a 1.0
O36 O 0.6483 0.0 0.952 . 2 a 1.0
O37 O 0.6477 0.0 0.7468 . 2 a 1.0
O38 O 0.6522 0.0 0.5463 . 2 a 1.0
O39 O 0.6444 0.0 0.3386 . 2 a 1.0
O40 O 0.6481 0.0 0.1386 . 2 a 1.0
O41 O 0.5094 0.0 0.8059 . 2 a 1.0

