data_Mn4.5_(_V_O4_)3_-_04-017-9624
#Copyright 2019 International Centre for Diffraction Data. All rights reserved.

_audit_creation_date                  2019-11-12
_audit_creation_method                'Generated by PDF-4+ 2020 4.20.0.1'

_chemical_name_systematic             'Manganese Vanadate'
_chemical_formula_moiety              'Mn4.5 ( V O4 )3'
_chemical_formula_sum                 'Mn4.5 O12 V3'
_chemical_formula_weight              592.03
_chemical_melting_point               1245.0

_cell_length_a                        7.0073(1)
_cell_length_b                        7.0073(1)
_cell_length_c                        19.6981(3)
_cell_angle_alpha                     90
_cell_angle_beta                      90
_cell_angle_gamma                     90
_cell_volume                          967.22
_cell_formula_units_Z                 4.00
_symmetry_cell_setting                tetragonal
_symmetry_space_group_name_H-M        I-42d
_symmetry_Int_Tables_number           122

loop_
_symmetry_equiv_pos_site_id
_symmetry_equiv_pos_as_xyz
1 x,y,z
2 -x+1/2,y,-z+3/4
3 -x,-y,z
4 x+1/2,-y,-z+3/4
5 -y,x,-z
6 y+1/2,x,z+3/4
7 y,-x,-z
8 -y+1/2,-x,z+3/4
9 x+1/2,y+1/2,z+1/2
10 -x,y+1/2,-z+1/4
11 -x+1/2,-y+1/2,z+1/2
12 x,-y+1/2,-z+1/4
13 -y+1/2,x+1/2,-z+1/2
14 y,x+1/2,z+1/4
15 y+1/2,-x+1/2,-z+1/2
16 -y,-x+1/2,z+1/4

loop_
_atom_site_label
_atom_site_type_symbol
_atom_site_fract_x
_atom_site_fract_y
_atom_site_fract_z
_atom_site_B_iso_or_equiv
_atom_site_symmetry_multiplicity
_atom_site_Wyckoff_symbol
_atom_site_occupancy
Mn1 Mn 0.0 0.0 0.2269 0.97 8 c 1.0
Mn2 Mn 0.2403 0.25 0.125 0.97 8 d 1.0
Mn3 Mn 0.0 0.0 0.5 0.97 4 b 0.491
V4 V 0.0 0.0 0.0 0.42 4 a 1.0
V5 V 0.654 0.25 0.125 0.42 8 d 1.0
O6 O 0.0515 0.1976 0.0438 1.57 16 e 1.0
O7 O 0.0523 0.272 0.3968 1.57 16 e 1.0
O8 O 0.4979 0.2166 0.0585 1.57 16 e 1.0

