data_Mn0.98_O2_-_01-081-1947
#Copyright 2019 International Centre for Diffraction Data. All rights reserved.

_audit_creation_date                  2019-11-12
_audit_creation_method                'Generated by PDF-4+ 2020 4.20.0.1'

_chemical_name_systematic             'Manganese Oxide'
_chemical_name_common                 '\a-Mn.98 O2'
_chemical_formula_moiety              'Mn0.98 O2'
_chemical_formula_sum                 'Mn0.98 O2'
_chemical_formula_weight              85.84

_cell_length_a                        9.7876(3)
_cell_length_b                        9.7876(3)
_cell_length_c                        2.8650(1)
_cell_angle_alpha                     90
_cell_angle_beta                      90
_cell_angle_gamma                     90
_cell_volume                          274.46
_cell_formula_units_Z                 8.00
_symmetry_cell_setting                tetragonal
_symmetry_space_group_name_H-M        I4/m
_symmetry_Int_Tables_number           87

loop_
_symmetry_equiv_pos_site_id
_symmetry_equiv_pos_as_xyz
1 x,y,z
2 -x,-y,-z
3 -x,-y,z
4 x,y,-z
5 -y,x,z
6 y,-x,-z
7 y,-x,z
8 -y,x,-z
9 x+1/2,y+1/2,z+1/2
10 -x+1/2,-y+1/2,-z+1/2
11 -x+1/2,-y+1/2,z+1/2
12 x+1/2,y+1/2,-z+1/2
13 -y+1/2,x+1/2,z+1/2
14 y+1/2,-x+1/2,-z+1/2
15 y+1/2,-x+1/2,z+1/2
16 -y+1/2,x+1/2,-z+1/2

loop_
_atom_site_label
_atom_site_type_symbol
_atom_site_fract_x
_atom_site_fract_y
_atom_site_fract_z
_atom_site_B_iso_or_equiv
_atom_site_symmetry_multiplicity
_atom_site_Wyckoff_symbol
_atom_site_occupancy
Mn1 Mn 0.3477 0.1653 0.0 0.69999 8 h 0.98
O2 O 0.1551 0.2031 0.0 0.73333 8 h 1.0
O3 O 0.5412 0.1651 0.0 0.66666 8 h 1.0

loop_
_atom_site_aniso_label
_atom_site_aniso_B_11
_atom_site_aniso_B_12
_atom_site_aniso_B_13
_atom_site_aniso_B_22
_atom_site_aniso_B_23
_atom_site_aniso_B_33
Mn1 1.1 0.7 0.0 0.9 0.0 0.1
O2 1.2 1.0 0.0 0.9 0.0 0.1
O3 0.5 0.2 0.0 1.4 0.0 0.1

