data_V2_O3_-_01-072-5929
#Copyright 2019 International Centre for Diffraction Data. All rights reserved.

_audit_creation_date                  2019-11-12
_audit_creation_method                'Generated by PDF-4+ 2020 4.20.0.1'

_chemical_name_systematic             'Vanadium Oxide'
_chemical_formula_moiety              'V2 O3'
_chemical_formula_sum                 'O3 V2'
_chemical_formula_weight              149.88

_cell_length_a                        7.2727(4)
_cell_length_b                        5.0027(3)
_cell_length_c                        5.5432(3)
_cell_angle_alpha                     90.000(2)
_cell_angle_beta                      96.762(2)
_cell_angle_gamma                     90.000(2)
_cell_volume                          200.28
_cell_formula_units_Z                 4.00
_symmetry_cell_setting                monoclinic
_symmetry_space_group_name_H-M        I2/a
_symmetry_Int_Tables_number           15

loop_
_symmetry_equiv_pos_site_id
_symmetry_equiv_pos_as_xyz
1 x,y,z
2 -x,-y,-z
3 x+1/2,-y,z
4 -x+1/2,y,-z
5 x+1/2,y+1/2,z+1/2
6 -x+1/2,-y+1/2,-z+1/2
7 x,-y+1/2,z+1/2
8 -x,y+1/2,-z+1/2

loop_
_atom_site_label
_atom_site_type_symbol
_atom_site_fract_x
_atom_site_fract_y
_atom_site_fract_z
_atom_site_B_iso_or_equiv
_atom_site_symmetry_multiplicity
_atom_site_Wyckoff_symbol
_atom_site_occupancy
V1 V 0.3445 0.0025 0.3001 0.41 8 f 1.0
O2 O 0.4043 0.8493 0.6459 0.31 8 f 1.0
O3 O 0.25 0.3166 0.5 0.35 4 e 1.0

