
#======================================================================
# CRYSTAL DATA
#----------------------------------------------------------------------
data_VESTA_phase_1

_chemical_name_common                  ''
_cell_length_a                         14.139(2)
_cell_length_b                         6.7102(7)
_cell_length_c                         11.4177(15)
_cell_angle_alpha                      90.000000
_cell_angle_beta                       90.000000
_cell_angle_gamma                      90.000000
_cell_volume                           1083.260150
_space_group_name_H-M_alt              'P n m a'
_space_group_IT_number                 62

loop_
_space_group_symop_operation_xyz
   'x, y, z'
   '-x, -y, -z'
   '-x+1/2, -y, z+1/2'
   'x+1/2, y, -z+1/2'
   '-x, y+1/2, -z'
   'x, -y+1/2, z'
   'x+1/2, -y+1/2, -z+1/2'
   '-x+1/2, y+1/2, z+1/2'

loop_
   _atom_site_label
   _atom_site_occupancy
   _atom_site_fract_x
   _atom_site_fract_y
   _atom_site_fract_z
   _atom_site_adp_type
   _atom_site_U_iso_or_equiv
   _atom_site_type_symbol
   Cu1        1.0     0.1430(2)    0.250000    -0.2459(2)   Uani  0.018233 Cu
   Cu2        1.0     0.00559(14)  0.5051(4)    0.14547(16) Uani  0.018267 Cu
   Cu3        1.0     0.6397(2)    0.250000     0.2055(2)   Uani  0.017733 Cu
   Fe         0.8770  0.3580(2)    0.750000     0.5202(4)   Uani  0.015167 Fe
   Al         0.1200  0.3580(2)    0.750000     0.5202(4)   Uani  0.015167 Al
   V1         1.0     0.1372(4)    0.750000     0.6680(4)   Uani  0.013000 V
   V2         1.0     0.3624(4)    0.250000    -0.1176(4)   Uani  0.014000 V
   V3         1.0     0.1920(4)    0.750000     0.0245(4)   Uani  0.012933 V
   O1         1.0     0.0881(11)   0.750000     0.5284(13)  Uani  0.021333 O
   O2         1.0     0.0580(10)   0.250000     0.1608(11)  Uani  0.010667 O
   O3         1.0     0.2558(11)   0.750000     0.6455(13)  Uani  0.016333 O
   O4         1.0     0.2419(13)   0.250000     0.4067(13)  Uani  0.026333 O
   O5         1.0     0.7375(11)   0.250000    -0.1382(14)  Uani  0.015333 O
   O6         1.0     0.8839(7)    0.4578(16)  -0.0261(8)   Uani  0.017667 O
   O7         1.0     0.3981(7)    0.0357(15)   0.2396(8)   Uani  0.013333 O
   O8         1.0     0.0524(10)   0.250000    -0.1178(11)  Uani  0.010000 O
   O9         1.0     0.3953(7)    0.4553(16)  -0.1899(9)   Uani  0.013333 O
   O10        1.0     0.2440(13)   0.250000    -0.0942(13)  Uani  0.023667 O

loop_
   _atom_site_aniso_label
   _atom_site_aniso_U_11
   _atom_site_aniso_U_22
   _atom_site_aniso_U_33
   _atom_site_aniso_U_12
   _atom_site_aniso_U_13
   _atom_site_aniso_U_23
   Cu1	 0.02390  0.01200  0.01880  0.00000  0.00500  0.00000
   Cu2	 0.02030  0.00830  0.02620  0.00240  0.00460  0.00070
   Cu3	 0.02120  0.01480  0.01720  0.00000  0.00560  0.00000
   Fe	 0.02100  0.00880  0.01570  0.00000 -0.00050  0.00000
   Al	 0.02100  0.00880  0.01570  0.00000 -0.00050  0.00000
   V1	 0.02000  0.01000  0.00900  0.00000  0.00180  0.00000
   V2	 0.01500  0.01300  0.01400  0.00000 -0.00060  0.00000
   V3	 0.01400  0.01120  0.01360  0.00000  0.00190  0.00000
   O1	 0.02400  0.02300  0.01700  0.00000  0.01300  0.00000
   O2	 0.00700  0.01700  0.00800  0.00000  0.00200  0.00000
   O3	 0.01900  0.01700  0.01300  0.00000  0.01300  0.00000
   O4	 0.04000  0.02800  0.01100  0.00000 -0.00800  0.00000
   O5	 0.01800  0.00900  0.01900  0.00000  0.01000  0.00000
   O6	 0.01900  0.01800  0.01600  0.00300  0.00000 -0.00800
   O7	 0.01900  0.00600  0.01500 -0.00100 -0.00100  0.00200
   O8	 0.00400  0.01300  0.01300  0.00000  0.00700  0.00000
   O9	 0.00800  0.01100  0.02100  0.00100  0.00300 -0.00200
   O10	 0.03600  0.01400  0.02100  0.00000  0.00500  0.00000
