data_04-018-6169
#Copyright 2022 International Centre for Diffraction Data. All rights reserved.

_audit_creation_date                  2022-11-15
_audit_creation_method                'Generated by PDF-4+ 2022 4.22.0.2'

_chemical_name_systematic             'Bismuth Oxide'
_chemical_formula_moiety              'Bi2 O3'
_chemical_formula_sum                 'Bi2 O3'
_chemical_formula_weight              465.96

_cell_length_a                        9.107(1)
_cell_length_b                        7.344(1)
_cell_length_c                        10.090(1)
_cell_angle_alpha                     90
_cell_angle_beta                      102.111(1)
_cell_angle_gamma                     90
_cell_formula_units_Z                 8
_cell_volume                          659.82
_symmetry_cell_setting                monoclinic
_symmetry_space_group_name_H-M        P21/c
_symmetry_Int_Tables_number           14

loop_
_symmetry_equiv_pos_site_id
_symmetry_equiv_pos_as_xyz
1 x,y,z
2 -x,-y,-z
3 -x,y+1/2,-z+1/2
4 x,-y+1/2,z+1/2

loop_
_atom_site_label
_atom_site_type_symbol
_atom_site_fract_x
_atom_site_fract_y
_atom_site_fract_z
_atom_site_B_iso_or_equiv
_atom_site_symmetry_multiplicity
_atom_site_Wyckoff_symbol
_atom_site_occupancy
Bi1 Bi 0.291 0.9059 0.9286 0.416 4 e 1.0
Bi2 Bi 0.9167 0.4017 0.3174 0.416 4 e 1.0
Bi3 Bi 0.4306 0.1266 0.3369 0.416 4 e 1.0
Bi4 Bi 0.2057 0.3823 0.0679 0.416 4 e 1.0
O5 O 0.4289 0.3667 0.1737 0.962 4 e 1.0
O6 O 0.9205 0.3462 0.5286 0.962 4 e 1.0
O7 O 0.712 0.955 0.839 0.962 4 e 1.0
O8 O 0.2242 0.194 0.888 0.962 4 e 1.0
O9 O 0.287 0.942 0.427 0.962 4 e 1.0
O10 O 0.1938 0.8605 0.7197 0.962 4 e 1.0

