data_01-077-4952
#Copyright 2022 International Centre for Diffraction Data. All rights reserved.

_audit_creation_date                  2022-11-15
_audit_creation_method                'Generated by PDF-4+ 2022 4.22.0.2'

_chemical_name_systematic             'Bismuth Vanadium Oxide'
_chemical_name_common                 'tetradecabismuth(III) triacontaoxotetravanadate(IV/V)'
_chemical_formula_moiety              'Bi14 V4 O30'
_chemical_formula_sum                 'Bi14 O30 V4'
_chemical_formula_weight              3609.46

_cell_length_a                        19.9345(3)
_cell_length_b                        11.5464(2)
_cell_length_c                        27.9515(4)
_cell_angle_alpha                     90
_cell_angle_beta                      110.8813(9)
_cell_angle_gamma                     90
_cell_formula_units_Z                 8
_cell_volume                          6011.09
_symmetry_cell_setting                monoclinic
_symmetry_space_group_name_H-M        C2/c
_symmetry_Int_Tables_number           15

loop_
_symmetry_equiv_pos_site_id
_symmetry_equiv_pos_as_xyz
1 x,y,z
2 -x,-y,-z
3 -x,y,-z+1/2
4 x,-y,z+1/2
5 x+1/2,y+1/2,z
6 -x+1/2,-y+1/2,-z
7 -x+1/2,y+1/2,-z+1/2
8 x+1/2,-y+1/2,z+1/2

loop_
_atom_site_label
_atom_site_type_symbol
_atom_site_fract_x
_atom_site_fract_y
_atom_site_fract_z
_atom_site_U_iso_or_equiv
_atom_site_symmetry_multiplicity
_atom_site_Wyckoff_symbol
_atom_site_occupancy
Bi1 Bi 0.24617 0.68931 0.190262 0.01088 8 f 1.0
Bi2 Bi 0.22927 0.03326 0.185828 0.01825 8 f 1.0
Bi3 Bi 0.57968 0.83422 0.050484 0.01788 8 f 1.0
Bi4 Bi 0.40668 0.99115 0.064452 0.01411 8 f 1.0
Bi5 Bi 0.08684 0.19241 -0.061405 0.02351 8 f 1.0
Bi6 Bi 0.09707 0.31366 -0.186207 0.0131 8 f 1.0
Bi7 Bi 0.57912 0.01747 0.186607 0.01021 8 f 1.0
Bi8 Bi 0.40943 0.51716 0.187641 0.01222 8 f 1.0
Bi9 Bi 0.57717 0.69382 0.183182 0.01098 8 f 1.0
Bi10 Bi -0.08174 0.00933 0.433855 0.01221 8 f 1.0
Bi11 Bi 0.23802 0.83753 0.06032 0.01297 8 f 1.0
Bi12 Bi 0.25064 0.4997 0.061181 0.02163 8 f 1.0
Bi13 Bi 0.24387 0.36074 0.178279 0.02367 8 f 1.0
Bi14 Bi 0.24439 0.1628 0.058698 0.0258 8 f 1.0
O15 O 0.2841 0.162 0.1621 0.017 8 f 1.0
O16 O 0.6109 0.8561 0.1641 0.0163 8 f 1.0
O17 O 0.2973 0.5451 0.1665 0.0127 8 f 1.0
O18 O 0.111 0.3488 -0.1079 0.0235 8 f 1.0
O19 O 0.2031 0.1639 -0.0338 0.0178 8 f 1.0
O20 O 0.6106 0.6623 0.0313 0.0154 8 f 1.0
O21 O 0.6276 0.6149 0.1348 0.0224 8 f 1.0
O22 O 0.6924 0.6691 0.2278 0.0216 8 f 1.0
O23 O 0.6967 0.8607 0.095 0.0179 8 f 1.0
O24 O 0.2885 0.9859 0.0369 0.0166 8 f 1.0
O25 O 0.6117 0.8549 -0.0162 0.0227 8 f 1.0
O26 O -0.1945 -0.0279 0.4076 0.033 8 f 1.0
O27 O 0.1897 0.546 0.2023 0.0253 8 f 1.0
O28 O 0.1377 0.1488 -0.1631 0.041 8 f 1.0
V29 V 0.07991 0.85469 0.19662 0.01187 8 f 1.0
O30 O 0.0877 0.9812 0.2307 0.0504 8 f 1.0
O31 O 0.1484 0.7702 0.2281 0.076 8 f 1.0
O32 O 0.0029 0.7864 0.1881 0.08 8 f 1.0
O33 O 0.0826 0.8894 0.1391 0.074 8 f 1.0
V34 V 0.40695 0.64476 0.05993 0.01187 8 f 1.0
O35 O 0.3894 0.5568 0.1038 0.0504 8 f 1.0
O36 O 0.4 0.5658 0.0091 0.076 8 f 1.0
O37 O 0.3509 0.7571 0.0429 0.08 8 f 1.0
O38 O 0.4909 0.695 0.0874 0.074 8 f 1.0
V39 V 0.39717 0.85782 0.18877 0.01187 8 f 1.0
O40 O 0.4091 0.7262 0.2196 0.0504 8 f 1.0
O41 O 0.3839 0.957 0.2271 0.076 8 f 1.0
O42 O 0.4675 0.8942 0.173 0.08 8 f 1.0
O43 O 0.3247 0.8465 0.135 0.074 8 f 1.0
V44 V 0.582 0.14844 0.06381 0.01186 8 f 1.0
O45 O 0.5441 0.074 0.1012 0.0504 8 f 1.0
O46 O 0.5288 0.2582 0.0368 0.076 8 f 1.0
O47 O 0.664 0.197 0.0976 0.08 8 f 1.0
O48 O 0.588 0.0565 0.019 0.074 8 f 1.0

loop_
_atom_site_aniso_label
_atom_site_aniso_U_11
_atom_site_aniso_U_12
_atom_site_aniso_U_13
_atom_site_aniso_U_22
_atom_site_aniso_U_23
_atom_site_aniso_U_33
Bi1 0.0154 -0.00119 0.00522 0.0066 -9.3E-4 0.01104
Bi2 0.0206 -0.00204 0.0111 0.0117 0.00439 0.0249
Bi3 0.0171 -9.0E-5 0.00918 0.0168 -0.00197 0.0216
Bi4 0.0137 0.00155 0.00452 0.016 0.00143 0.0125
Bi5 0.016 0.00116 0.0049 0.0191 -0.0045 0.0324
Bi6 0.0151 -7.5E-4 0.00247 0.0129 -9.5E-4 0.0097
Bi7 0.0132 8.3E-4 0.00635 0.0076 0.0 0.01142
Bi8 0.01047 -0.00125 0.00282 0.0098 -8.0E-5 0.015
Bi9 0.01185 -0.00233 0.00648 0.0095 7.2E-4 0.01322
Bi10 0.0129 0.00389 0.00487 0.0127 0.00165 0.01147
Bi11 0.0228 -0.00368 0.00841 0.0078 -0.00164 0.01036
Bi12 0.0244 0.0018 0.0104 0.02 0.0047 0.0222
Bi13 0.0356 -0.0103 0.0051 0.0226 -0.0018 0.0103
Bi14 0.0274 0.0043 0.0114 0.0244 -0.001 0.027
V29 0.0118 0.0022 0.0048 0.011 2.0E-4 0.0131
V34 0.0128 -1.0E-4 0.0055 0.0134 -7.0E-4 0.0105
V39 0.0126 0.0015 0.0047 0.01 -6.0E-4 0.0131
V44 0.0131 0.0011 0.0038 0.0113 0.002 0.0108

