data_04-003-2035
#Copyright 2022 International Centre for Diffraction Data. All rights reserved.

_audit_creation_date                  2022-11-15
_audit_creation_method                'Generated by PDF-4+ 2022 4.22.0.2'

_chemical_name_systematic             'Vanadium Oxide'
_chemical_name_common                 'vanadium(IV) oxide'
_chemical_formula_moiety              'V O2'
_chemical_formula_sum                 'O2 V'
_chemical_formula_weight              82.94

_cell_length_a                        5.7517(30)
_cell_length_b                        4.5378(25)
_cell_length_c                        5.3825(25)
_cell_angle_alpha                     90
_cell_angle_beta                      122.646(96)
_cell_angle_gamma                     90
_cell_formula_units_Z                 4
_cell_volume                          118.29
_symmetry_cell_setting                monoclinic
_symmetry_space_group_name_H-M        P21/c
_symmetry_Int_Tables_number           14

loop_
_symmetry_equiv_pos_site_id
_symmetry_equiv_pos_as_xyz
1 x,y,z
2 -x,-y,-z
3 -x,y+1/2,-z+1/2
4 x,-y+1/2,z+1/2

loop_
_atom_site_label
_atom_site_type_symbol
_atom_site_fract_x
_atom_site_fract_y
_atom_site_fract_z
_atom_site_B_iso_or_equiv
_atom_site_symmetry_multiplicity
_atom_site_Wyckoff_symbol
_atom_site_occupancy
V1 V 0.23947 0.97894 0.02646 0.299 4 e 1.0
O2 O 0.10616 0.21185 0.20859 0.396 4 e 1.0
O3 O 0.40051 0.70258 0.29884 0.441 4 e 1.0

