data_04-009-3572
#Copyright 2022 International Centre for Diffraction Data. All rights reserved.

_audit_creation_date                  2022-11-15
_audit_creation_method                'Generated by PDF-4+ 2022 4.22.0.2'

_chemical_name_systematic             'Copper Vanadium Oxide'
_chemical_name_common                 '\b`-Cu0.59 V2 O5'
_chemical_formula_moiety              'Cu0.59 V2 O5'
_chemical_formula_sum                 'Cu0.59 O5 V2'
_chemical_formula_weight              219.37

_cell_length_a                        15.2314(7)
_cell_length_b                        3.6448(3)
_cell_length_c                        10.1129(4)
_cell_angle_alpha                     90
_cell_angle_beta                      106.13(2)
_cell_angle_gamma                     90
_cell_formula_units_Z                 6
_cell_volume                          539.32
_symmetry_cell_setting                monoclinic
_symmetry_space_group_name_H-M        C2/m
_symmetry_Int_Tables_number           12

loop_
_symmetry_equiv_pos_site_id
_symmetry_equiv_pos_as_xyz
1 x,y,z
2 -x,-y,-z
3 x,-y,z
4 -x,y,-z
5 x+1/2,y+1/2,z
6 -x+1/2,-y+1/2,-z
7 x+1/2,-y+1/2,z
8 -x+1/2,y+1/2,-z

loop_
_atom_site_label
_atom_site_type_symbol
_atom_site_fract_x
_atom_site_fract_y
_atom_site_fract_z
_atom_site_B_iso_or_equiv
_atom_site_symmetry_multiplicity
_atom_site_Wyckoff_symbol
_atom_site_occupancy
O1 O 0.1885 0.0 -0.0447 0.62 4 i 1.0
O2 O 0.3678 0.0 -0.0847 0.64 4 i 1.0
O3 O 0.0971 0.0 0.2741 1.38 4 i 1.0
O4 O 0.4317 0.0 0.2031 1.03 4 i 1.0
Cu5 Cu 0.4573 0.0 0.6563 1.64 4 i 0.34
V6 V 0.11361 0.0 0.1194 0.75 4 i 1.0
O7 O 0.2605 0.0 0.2227 0.75 4 i 1.0
O8 O 0.2448 0.0 0.5758 0.92 4 i 1.0
V9 V 0.33233 0.0 0.09133 0.444 4 i 1.0
Cu10 Cu 0.4724 0.0727 0.6419 2.72 8 j 0.27
V11 V 0.28682 0.0 0.40661 0.65 4 i 1.0
O12 O 0.3987 0.0 0.4607 1.32 4 i 1.0
O13 O 0.0 0.0 0.0 1.11 2 a 1.0

