data_04-012-3630
#Copyright 2022 International Centre for Diffraction Data. All rights reserved.

_audit_creation_date                  2022-11-15
_audit_creation_method                'Generated by PDF-4+ 2022 4.22.0.2'

_chemical_name_systematic             'Copper Vanadium Oxide'
_chemical_formula_moiety              'Cu1.82 V4 O11'
_chemical_formula_sum                 'Cu1.82 O11 V4'
_chemical_formula_weight              495.41

_cell_length_a                        15.38(3)
_cell_length_b                        3.61(2)
_cell_length_c                        7.37(3)
_cell_angle_alpha                     90
_cell_angle_beta                      102.0(5)
_cell_angle_gamma                     90
_cell_formula_units_Z                 2
_cell_volume                          400.25
_symmetry_cell_setting                monoclinic
_symmetry_space_group_name_H-M        Cm
_symmetry_Int_Tables_number           8

loop_
_symmetry_equiv_pos_site_id
_symmetry_equiv_pos_as_xyz
1 x,y,z
2 x,-y,z
3 x+1/2,y+1/2,z
4 x+1/2,-y+1/2,z

loop_
_atom_site_label
_atom_site_type_symbol
_atom_site_fract_x
_atom_site_fract_y
_atom_site_fract_z
_atom_site_B_iso_or_equiv
_atom_site_symmetry_multiplicity
_atom_site_Wyckoff_symbol
_atom_site_occupancy
Cu1 Cu 0.5003 0.211 0.4877 0.29 4 b 0.49
Cu2 Cu 0.2574 0.5 0.4512 1.92 2 a 0.84
V3 V 0.1203 0.0 0.1507 0.28 2 a 1.0
V4 V 0.3367 0.0 0.1459 0.22 2 a 1.0
V5 V 0.1823 0.5 -0.1421 0.34 2 a 1.0
V6 V 0.4029 0.5 -0.1507 0.18 2 a 1.0
O7 O 0.136 0.5 0.108 0.42 2 a 1.0
O8 O 0.308 0.5 0.067 0.5 2 a 1.0
O9 O 0.192 0.0 -0.068 0.35 2 a 1.0
O10 O 0.382 0.0 -0.091 0.39 2 a 1.0
O11 O 0.005 0.0 -0.027 0.39 2 a 1.0
O12 O 0.092 0.0 0.354 0.51 2 a 1.0
O13 O 0.257 0.0 0.316 0.48 2 a 1.0
O14 O 0.429 0.0 0.294 0.43 2 a 1.0
O15 O 0.089 0.5 0.71 0.45 2 a 1.0
O16 O 0.26 0.5 0.709 0.48 2 a 1.0
O17 O 0.422 0.5 0.633 0.46 2 a 1.0

