data_00-041-1449
#Copyright 2022 International Centre for Diffraction Data. All rights reserved.

_audit_creation_date                  2022-11-15
_audit_creation_method                'Generated by PDF-4+ 2022 4.22.0.2'

_chemical_name_systematic             'Bismuth Oxide'
_chemical_formula_moiety              'Bi2 O3'
_chemical_formula_sum                 'Bi2 O3'
_chemical_formula_weight              465.96

_cell_length_a                        5.85
_cell_length_b                        8.17
_cell_length_c                        7.51
_cell_angle_alpha                     90
_cell_angle_beta                      113
_cell_angle_gamma                     90
_cell_formula_units_Z                 4
_cell_volume                          330.40
_symmetry_cell_setting                monoclinic
_symmetry_space_group_name_H-M        P21/c
_symmetry_Int_Tables_number           14

loop_
_symmetry_equiv_pos_site_id
_symmetry_equiv_pos_as_xyz
1 x,y,z
2 -x,-y,-z
3 -x,y+1/2,-z+1/2
4 x,-y+1/2,z+1/2

loop_
_atom_site_label
_atom_site_type_symbol
_atom_site_fract_x
_atom_site_fract_y
_atom_site_fract_z
_atom_site_U_iso_or_equiv
_atom_site_symmetry_multiplicity
_atom_site_Wyckoff_symbol
_atom_site_occupancy
Bi1 Bi 0.0404 0.0425 0.2767 . 4 e 1.0
O2 O 0.2337 0.4533 0.1266 . 4 e 1.0
O3 O 0.2658 0.0294 0.0115 . 4 e 1.0
Bi4 Bi 0.5242 0.3157 0.3615 . 4 e 1.0
O5 O 0.7783 0.3037 0.208 . 4 e 1.0

