data_04-014-9744
#Copyright 2022 International Centre for Diffraction Data. All rights reserved.

_audit_creation_date                  2022-11-15
_audit_creation_method                'Generated by PDF-4+ 2022 4.22.0.2'

_chemical_name_systematic             'Bismuth Vanadium Oxide'
_chemical_formula_moiety              'V3 Bi6 O16'
_chemical_formula_sum                 'Bi6 O16 V3'
_chemical_formula_weight              1662.69

_cell_length_a                        5.4721(1)
_cell_length_b                        17.2542(3)
_cell_length_c                        14.9174(2)
_cell_angle_alpha                     90
_cell_angle_beta                      90
_cell_angle_gamma                     90
_cell_formula_units_Z                 4
_cell_volume                          1408.45
_symmetry_cell_setting                orthorhombic
_symmetry_space_group_name_H-M        Pnma
_symmetry_Int_Tables_number           62

loop_
_symmetry_equiv_pos_site_id
_symmetry_equiv_pos_as_xyz
1 x,y,z
2 -x,-y,-z
3 x+1/2,-y+1/2,-z+1/2
4 -x+1/2,y+1/2,z+1/2
5 -x,y+1/2,-z
6 x,-y+1/2,z
7 -x+1/2,-y,z+1/2
8 x+1/2,y,-z+1/2

loop_
_atom_site_label
_atom_site_type_symbol
_atom_site_fract_x
_atom_site_fract_y
_atom_site_fract_z
_atom_site_B_iso_or_equiv
_atom_site_symmetry_multiplicity
_atom_site_Wyckoff_symbol
_atom_site_occupancy
Bi1 Bi 0.2014 0.25 0.3172 1.11 4 c 1.0
Bi2 Bi 0.2548 0.25 0.6709 1.05 4 c 1.0
Bi3 Bi 0.2358 0.4115 0.8341 1.1 8 d 1.0
Bi4 Bi 0.2845 0.4269 0.1673 1.48 8 d 1.0
V5 V 0.2467 0.25 0.0275 1.4 4 c 1.0
V6 V 0.2615 0.3881 0.4853 1.4 8 d 1.0
O7 O -0.031 -0.025 0.251 0.1 8 d 1.0
O8 O 0.096 0.367 0.271 0.1 8 d 1.0
O9 O 0.023 0.328 0.756 0.1 8 d 1.0
O10 O -0.003 0.329 0.051 0.1 8 d 1.0
O11 O 0.008 0.331 0.468 0.1 8 d 1.0
O12 O 0.26 0.405 0.593 0.1 8 d 1.0
O13 O 0.204 0.469 0.427 0.1 8 d 1.0
O14 O 0.301 0.25 0.149 0.1 4 c 1.0
O15 O 0.148 0.25 0.917 0.1 4 c 1.0

