data_04-007-2429
#Copyright 2022 International Centre for Diffraction Data. All rights reserved.

_audit_creation_date                  2022-11-15
_audit_creation_method                'Generated by PDF-4+ 2022 4.22.0.2'

_chemical_name_systematic             'Vanadium Oxide'
_chemical_formula_moiety              'V O2'
_chemical_formula_sum                 'O2 V'
_chemical_formula_weight              82.94

_cell_length_a                        8.4403(9)
_cell_length_b                        8.4403(9)
_cell_length_c                        7.666(1)
_cell_angle_alpha                     90
_cell_angle_beta                      90
_cell_angle_gamma                     90
_cell_formula_units_Z                 16
_cell_volume                          546.12
_symmetry_cell_setting                tetragonal
_symmetry_space_group_name_H-M        P4/ncc
_symmetry_Int_Tables_number           130

loop_
_symmetry_equiv_pos_site_id
_symmetry_equiv_pos_as_xyz
1 x,y,z
2 -x,-y,-z
3 -x+1/2,y,z+1/2
4 x+1/2,-y,-z+1/2
5 x,-y+1/2,z+1/2
6 -x,y+1/2,-z+1/2
7 -x+1/2,-y+1/2,z
8 x+1/2,y+1/2,-z
9 y,x,z+1/2
10 -y,-x,-z+1/2
11 -y+1/2,x,z
12 y+1/2,-x,-z
13 y,-x+1/2,z
14 -y,x+1/2,-z
15 -y+1/2,-x+1/2,z+1/2
16 y+1/2,x+1/2,-z+1/2

loop_
_atom_site_label
_atom_site_type_symbol
_atom_site_fract_x
_atom_site_fract_y
_atom_site_fract_z
_atom_site_B_iso_or_equiv
_atom_site_symmetry_multiplicity
_atom_site_Wyckoff_symbol
_atom_site_occupancy
V1 V 0.44818 0.72455 0.12939 0.418 16 g 1.0
O2 O 0.4039 0.7481 0.3776 0.59 16 g 1.0
O3 O 0.4099 0.4108 0.3732 0.78 16 g 1.0

