data_04-012-0620
#Copyright 2022 International Centre for Diffraction Data. All rights reserved.

_audit_creation_date                  2022-11-15
_audit_creation_method                'Generated by PDF-4+ 2022 4.22.0.2'

_chemical_name_systematic             'Copper Vanadium Oxide'
_chemical_name_common                 '\b`-Cu2 ( V2 O7 )'
_chemical_formula_moiety              'Cu2 ( V2 O7 )'
_chemical_formula_sum                 'Cu2 O7 V2'
_chemical_formula_weight              340.97

_cell_length_a                        7.325(1)
_cell_length_b                        8.214(1)
_cell_length_c                        10.190(1)
_cell_angle_alpha                     90
_cell_angle_beta                      111.78(1)
_cell_angle_gamma                     90
_cell_formula_units_Z                 4
_cell_volume                          569.34
_symmetry_cell_setting                monoclinic
_symmetry_space_group_name_H-M        C2/c
_symmetry_Int_Tables_number           15

loop_
_symmetry_equiv_pos_site_id
_symmetry_equiv_pos_as_xyz
1 x,y,z
2 -x,-y,-z
3 -x,y,-z+1/2
4 x,-y,z+1/2
5 x+1/2,y+1/2,z
6 -x+1/2,-y+1/2,-z
7 -x+1/2,y+1/2,-z+1/2
8 x+1/2,-y+1/2,z+1/2

loop_
_atom_site_label
_atom_site_type_symbol
_atom_site_fract_x
_atom_site_fract_y
_atom_site_fract_z
_atom_site_B_iso_or_equiv
_atom_site_symmetry_multiplicity
_atom_site_Wyckoff_symbol
_atom_site_occupancy
Cu1 Cu -0.021 0.321 0.508 0.63 8 f 1.0
V2 V 0.196 0.001 0.203 0.67 8 f 1.0
O3 O 0.0 -0.023 0.25 1.03 4 e 1.0
O4 O 0.4 -0.015 0.357 0.84 8 f 1.0
O5 O 0.253 0.169 0.087 0.94 8 f 1.0
O6 O 0.31 -0.14 0.129 0.75 8 f 1.0

