data_04-011-3627
#Copyright 2022 International Centre for Diffraction Data. All rights reserved.

_audit_creation_date                  2022-11-15
_audit_creation_method                'Generated by PDF-4+ 2022 4.22.0.2'

_chemical_name_systematic             'Vanadium Bismuth Oxide'
_chemical_formula_moiety              'V2 Bi4 O11'
_chemical_formula_sum                 'Bi4 O11 V2'
_chemical_formula_weight              1113.79

_cell_length_a                        5.6120(2)
_cell_length_b                        15.2829(4)
_cell_length_c                        16.6014(5)
_cell_angle_alpha                     90
_cell_angle_beta                      89.756(1)
_cell_angle_gamma                     90
_cell_formula_units_Z                 6
_cell_volume                          1423.85
_symmetry_cell_setting                monoclinic
_symmetry_space_group_name_H-M        C2/m
_symmetry_Int_Tables_number           12

loop_
_symmetry_equiv_pos_site_id
_symmetry_equiv_pos_as_xyz
1 x,y,z
2 -x,-y,-z
3 x,-y,z
4 -x,y,-z
5 x+1/2,y+1/2,z
6 -x+1/2,-y+1/2,-z
7 x+1/2,-y+1/2,z
8 -x+1/2,y+1/2,-z

loop_
_atom_site_label
_atom_site_type_symbol
_atom_site_fract_x
_atom_site_fract_y
_atom_site_fract_z
_atom_site_B_iso_or_equiv
_atom_site_symmetry_multiplicity
_atom_site_Wyckoff_symbol
_atom_site_occupancy
Bi1 Bi 0.0 0.332 0.0 2.09 4 g 1.0
Bi2 Bi 0.9877 0.3319 0.3329 2.09 8 j 1.0
Bi3 Bi 0.0 0.1758 0.5 2.09 4 h 1.0
Bi4 Bi 0.0492 0.1657 0.1671 2.09 8 j 1.0
V5 V 0.0 0.0 0.0 2.4 2 a 1.0
V6 V 0.989 0.0 0.349 2.4 4 i 1.0
V7 V 0.654 0.0 0.484 2.4 4 i 0.5
V8 V 0.584 0.0 0.178 2.4 4 i 1.0
O9 O 0.266 0.249 0.091 0.5 8 j 1.0
O10 O 0.279 0.264 0.419 0.5 8 j 1.0
O11 O 0.246 0.252 0.751 0.5 8 j 1.0
O12 O 0.181 0.0 0.088 2.3 4 i 0.875
O13 O 0.142 0.021 0.431 2.3 8 j 0.25
O14 O 0.214 0.0 0.767 2.3 4 i 1.0
O15 O 0.627 0.0 0.077 2.3 4 i 1.0
O16 O 0.603 0.0 0.367 2.3 4 i 0.875
O17 O 0.774 0.048 0.734 2.3 8 j 0.375
O18 O 0.092 0.08 0.944 2.3 8 j 0.4375
O19 O 0.062 0.092 0.332 2.3 8 j 0.8125
O20 O 0.925 0.397 0.193 2.3 8 j 1.0
O21 O 0.0 0.395 0.5 2.3 4 h 1.0

