data_04-015-6853
#Copyright 2022 International Centre for Diffraction Data. All rights reserved.

_audit_creation_date                  2022-11-15
_audit_creation_method                'Generated by PDF-4+ 2022 4.22.0.2'

_chemical_name_systematic             'Bismuth Oxide'
_chemical_name_common                 '\b-Bi2 O3'
_chemical_formula_moiety              'Bi2 O3'
_chemical_formula_sum                 'Bi2 O3'
_chemical_formula_weight              465.96

_cell_length_a                        7.7346(5)
_cell_length_b                        7.7346(5)
_cell_length_c                        5.6198(6)
_cell_angle_alpha                     90
_cell_angle_beta                      90
_cell_angle_gamma                     90
_cell_formula_units_Z                 4
_cell_volume                          336.20
_symmetry_cell_setting                tetragonal
_symmetry_space_group_name_H-M        P-421c
_symmetry_Int_Tables_number           114

loop_
_symmetry_equiv_pos_site_id
_symmetry_equiv_pos_as_xyz
1 x,y,z
2 -x+1/2,y+1/2,-z+1/2
3 -x,-y,z
4 x+1/2,-y+1/2,-z+1/2
5 -y,x,-z
6 y+1/2,x+1/2,z+1/2
7 y,-x,-z
8 -y+1/2,-x+1/2,z+1/2

loop_
_atom_site_label
_atom_site_type_symbol
_atom_site_fract_x
_atom_site_fract_y
_atom_site_fract_z
_atom_site_B_iso_or_equiv
_atom_site_symmetry_multiplicity
_atom_site_Wyckoff_symbol
_atom_site_occupancy
Bi1 Bi 0.5018 0.2466 0.2631 0.84 8 e 1.0
O2 O 0.0 0.5 0.3966 1.08 4 d 1.0
O3 O 0.8103 0.2108 0.5231 1.72 8 e 1.0

