data_01-085-1514
#Copyright 2022 International Centre for Diffraction Data. All rights reserved.

_audit_creation_date                  2022-11-15
_audit_creation_method                'Generated by PDF-4+ 2022 4.22.0.2'

_chemical_name_systematic             'Vanadium Oxide'
_chemical_formula_moiety              'V5 O9'
_chemical_formula_sum                 'O9 V5'
_chemical_formula_weight              398.70

_cell_length_a                        5.472
_cell_length_b                        7.003(1)
_cell_length_c                        8.727(1)
_cell_angle_alpha                     97.49
_cell_angle_beta                      112.40
_cell_angle_gamma                     109.01
_cell_formula_units_Z                 2
_cell_volume                          279.66
_symmetry_cell_setting                triclinic
_symmetry_space_group_name_H-M        P-1
_symmetry_Int_Tables_number           2

loop_
_symmetry_equiv_pos_site_id
_symmetry_equiv_pos_as_xyz
1 x,y,z
2 -x,-y,-z

loop_
_atom_site_label
_atom_site_type_symbol
_atom_site_fract_x
_atom_site_fract_y
_atom_site_fract_z
_atom_site_B_iso_or_equiv
_atom_site_symmetry_multiplicity
_atom_site_Wyckoff_symbol
_atom_site_occupancy
V1 V 0.0 0.5 0.0 0.3232 1 c 1.0
V2 V 0.0 0.0 0.0 0.37639 1 a 1.0
V3 V 0.54953 0.83654 0.20294 0.332 2 i 1.0
V4 V 0.55815 0.345 0.20808 0.31743 2 i 1.0
V5 V 0.13748 0.17333 0.42045 0.29159 2 i 1.0
V6 V 0.14709 0.67629 0.42466 0.30918 2 i 1.0
O7 O 0.6475 0.8505 0.023 0.3698 2 i 1.0
O8 O 0.1647 0.8064 0.0791 0.35217 2 i 1.0
O9 O 0.3942 0.534 0.1369 0.36573 2 i 1.0
O10 O 0.083 0.5108 0.8006 0.37621 2 i 1.0
O11 O 0.2138 0.1883 0.2408 0.4159 2 i 1.0
O12 O 0.7283 0.1503 0.3222 0.31242 2 i 1.0
O13 O 0.949 0.865 0.3664 0.29 2 i 1.0
O14 O 0.4815 0.7995 0.4184 0.40507 2 i 1.0
O15 O 0.7708 0.5334 0.4596 0.32541 2 i 1.0

loop_
_atom_site_aniso_label
_atom_site_aniso_B_11
_atom_site_aniso_B_12
_atom_site_aniso_B_13
_atom_site_aniso_B_22
_atom_site_aniso_B_23
_atom_site_aniso_B_33
V1 0.460107 0.210487 0.199502 0.401219 0.0391144 0.178931
V2 0.570874 0.315731 0.313503 0.577755 0.156458 0.204492
V3 0.434546 0.1871 0.171002 0.417268 0.0586716 0.178931
V4 0.468628 0.233875 0.228002 0.449365 0.0586716 0.153369
V5 0.451587 0.175406 0.299253 0.401219 0.0391144 0.17041
V6 0.477148 0.268956 0.299253 0.497512 0.1369 0.178931
O7 0.494189 0.105244 0.285003 0.465414 0.0391144 0.187451
O8 0.485669 0.304037 0.270753 0.545658 0.156458 0.230054
O9 0.485669 0.233875 0.199502 0.481463 0.0977861 0.204492
O10 0.400464 0.128631 0.256502 0.577755 0.0586716 0.195972
O11 0.579394 0.233875 0.256502 0.609853 0.176015 0.16189
O12 0.366382 0.1871 0.171002 0.465414 0.0586716 0.16189
O13 0.451587 0.1871 0.228002 0.337024 0.0391144 0.178931
O14 0.434546 0.257262 0.256502 0.674048 0.0977861 0.230054
O15 0.468628 0.152019 0.213752 0.433317 0.117343 0.136328

