data_04-016-7495
#Copyright 2022 International Centre for Diffraction Data. All rights reserved.

_audit_creation_date                  2022-11-15
_audit_creation_method                'Generated by PDF-4+ 2022 4.22.0.2'

_chemical_name_systematic             'Bismuth Oxide'
_chemical_name_common                 '\a-Bi2 O3'
_chemical_formula_moiety              'Bi2 O3'
_chemical_formula_sum                 'Bi2 O3'
_chemical_formula_weight              465.96

_cell_length_a                        5.8915(1)
_cell_length_b                        8.1772(4)
_cell_length_c                        7.5286(4)
_cell_angle_alpha                     90
_cell_angle_beta                      112.83(1)
_cell_angle_gamma                     90
_cell_formula_units_Z                 4
_cell_volume                          334.28
_symmetry_cell_setting                monoclinic
_symmetry_space_group_name_H-M        P21/c
_symmetry_Int_Tables_number           14

loop_
_symmetry_equiv_pos_site_id
_symmetry_equiv_pos_as_xyz
1 x,y,z
2 -x,-y,-z
3 -x,y+1/2,-z+1/2
4 x,-y+1/2,z+1/2

loop_
_atom_site_label
_atom_site_type_symbol
_atom_site_fract_x
_atom_site_fract_y
_atom_site_fract_z
_atom_site_B_iso_or_equiv
_atom_site_symmetry_multiplicity
_atom_site_Wyckoff_symbol
_atom_site_occupancy
Bi1 Bi 0.5238 0.1852 0.3631 1.17 4 e 1.0
Bi2 Bi 0.0381 0.0428 0.7769 1.26 4 e 1.0
O3 O 0.7779 0.3022 0.7071 1.53 4 e 1.0
O4 O 0.2356 0.0515 0.1271 1.55 4 e 1.0
O5 O 0.2689 0.0276 0.5121 1.28 4 e 1.0

