data_04-017-3174
#Copyright 2022 International Centre for Diffraction Data. All rights reserved.

_audit_creation_date                  2022-11-15
_audit_creation_method                'Generated by PDF-4+ 2022 4.22.0.2'

_chemical_name_systematic             'Copper Vanadium Oxide'
_chemical_name_common                 '\a-Cu6.5 V6 O18.5'
_chemical_formula_moiety              'Cu6.5 V6 O18.5'
_chemical_formula_sum                 'Cu6.5 O18.5 V6'
_chemical_formula_weight              1014.68
_chemical_melting_point               809.0

_cell_length_a                        12.859
_cell_length_b                        12.859
_cell_length_c                        7.186
_cell_angle_alpha                     90
_cell_angle_beta                      90
_cell_angle_gamma                     120
_cell_formula_units_Z                 3
_cell_volume                          1029.04
_symmetry_cell_setting                rhombohedral
_symmetry_space_group_name_H-M        R-3
_symmetry_Int_Tables_number           148

loop_
_symmetry_equiv_pos_site_id
_symmetry_equiv_pos_as_xyz
1 x,y,z
2 -x,-y,-z
3 -y,x-y,z
4 y,-x+y,-z
5 -x+y,-x,z
6 x-y,x,-z
7 x+2/3,y+1/3,z+1/3
8 -x+2/3,-y+1/3,-z+1/3
9 -y+2/3,x-y+1/3,z+1/3
10 y+2/3,-x+y+1/3,-z+1/3
11 -x+y+2/3,-x+1/3,z+1/3
12 x-y+2/3,x+1/3,-z+1/3
13 x+1/3,y+2/3,z+2/3
14 -x+1/3,-y+2/3,-z+2/3
15 -y+1/3,x-y+2/3,z+2/3
16 y+1/3,-x+y+2/3,-z+2/3
17 -x+y+1/3,-x+2/3,z+2/3
18 x-y+1/3,x+2/3,-z+2/3

loop_
_atom_site_label
_atom_site_type_symbol
_atom_site_fract_x
_atom_site_fract_y
_atom_site_fract_z
_atom_site_U_iso_or_equiv
_atom_site_symmetry_multiplicity
_atom_site_Wyckoff_symbol
_atom_site_occupancy
O1 O 0.0895 0.237 0.0028 . 18 f 0.974
Cu2 Cu 0.0962 0.38825 0.0696 . 18 f 1.0
O3 O 0.1239 0.017 0.3102 . 18 f 0.974
V4 V 0.1354 0.153 0.1718 . 18 f 1.0
O5 O 0.437 0.0699 0.0203 . 18 f 0.974
Cu6 Cu 0.0 0.0 0.5 . 3 b 0.5
O7 O 0.0 0.0 0.0 . 3 a 0.974

