data_04-021-4019
#Copyright 2022 International Centre for Diffraction Data. All rights reserved.

_audit_creation_date                  2022-11-15
_audit_creation_method                'Generated by PDF-4+ 2022 4.22.0.2'

_chemical_name_systematic             'Bismuth Vanadium Oxide'
_chemical_formula_moiety              'V4 Bi14 O31'
_chemical_formula_sum                 'Bi14 O31 V4'
_chemical_formula_weight              3625.46

_cell_length_a                        11.7420(4)
_cell_length_b                        5.4039(2)
_cell_length_c                        25.1993(9)
_cell_angle_alpha                     90
_cell_angle_beta                      108.405(2)
_cell_angle_gamma                     90
_cell_formula_units_Z                 2
_cell_volume                          1517.17
_symmetry_cell_setting                monoclinic
_symmetry_space_group_name_H-M        P21/c
_symmetry_Int_Tables_number           14

loop_
_symmetry_equiv_pos_site_id
_symmetry_equiv_pos_as_xyz
1 x,y,z
2 -x,-y,-z
3 -x,y+1/2,-z+1/2
4 x,-y+1/2,z+1/2

loop_
_atom_site_label
_atom_site_type_symbol
_atom_site_fract_x
_atom_site_fract_y
_atom_site_fract_z
_atom_site_U_iso_or_equiv
_atom_site_symmetry_multiplicity
_atom_site_Wyckoff_symbol
_atom_site_occupancy
Bi1 Bi 0.96168 0.81691 0.7947 0.01234 4 e 1.0
Bi2 Bi 0.73651 1.27162 0.72328 0.01704 4 e 1.0
Bi3 Bi 1.1852 1.28026 0.86018 0.01445 4 e 1.0
Bi4 Bi 0.49419 0.7656 0.63547 0.01556 4 e 0.542
Bi5 Bi 0.51967 0.8243 0.66266 0.01521 4 e 0.458
Bi6 Bi 1.3973 1.7624 0.9322 0.01491 4 e 0.449
Bi7 Bi 1.3922 0.8409 0.93408 0.01491 4 e 0.551
Bi8 Bi 0.12782 0.73655 0.60311 0.01217 4 e 1.0
Bi9 Bi 1.71549 1.77724 0.96655 0.01727 4 e 1.0
V10 V 0.34644 1.268 0.68602 0.01276 4 e 1.0
V11 V 1.09291 0.7297 0.94508 0.01096 4 e 1.0
O12 O 1.7117 1.9867 0.8668 0.02241 4 e 1.0
O13 O 0.497 1.25 0.6997 0.03854 4 e 1.0
O14 O 0.6937 0.8314 0.7566 0.02733 4 e 1.0
O15 O 0.2908 0.988 0.6613 0.04983 4 e 1.0
O16 O 1.1504 0.7861 0.8919 0.02372 4 e 1.0
O17 O -0.0795 0.9176 0.551 0.02103 4 e 1.0
O18 O 0.0465 0.364 0.5723 0.02649 4 e 1.0
O19 O 1.1936 0.8371 1.0057 0.0198 4 e 1.0
O20 O 0.6621 1.038 0.6468 0.01106 4 e 1.0
O21 O 0.6601 1.5374 0.643 0.0127 4 e 1.0
O22 O 1.113 1.023 0.7858 0.01099 4 e 1.0
O23 O 1.1171 0.5218 0.7827 0.01085 4 e 1.0
O24 O 1.5597 1.0022 0.9388 0.02168 4 e 1.0
O25 O 0.4392 0.989 0.5698 0.04521 4 e 0.8
O26 O 1.3351 1.242 0.9596 0.03248 4 e 0.8
O27 O 0.9256 1.1972 0.8267 0.0153 4 e 0.9

loop_
_atom_site_aniso_label
_atom_site_aniso_U_11
_atom_site_aniso_U_12
_atom_site_aniso_U_13
_atom_site_aniso_U_22
_atom_site_aniso_U_23
_atom_site_aniso_U_33
Bi1 0.0105 -7.0E-4 0.00326 0.0151 0.00264 0.0113
Bi2 0.019 0.00472 0.01356 0.0152 0.00304 0.0219
Bi3 0.0167 0.0052 0.00629 0.0151 0.0014 0.0127
Bi4 0.0147 9.0E-4 0.0083 0.0114 6.0E-4 0.0223
Bi5 0.0096 4.0E-4 0.0051 0.0149 0.0062 0.0213
Bi6 0.0128 0.0019 0.0034 0.0159 0.0024 0.0153
Bi7 0.0128 0.0019 0.0034 0.0159 0.0024 0.0153
Bi8 0.0129 2.8E-4 0.00629 0.0116 5.4E-4 0.0135
Bi9 0.0152 0.00227 0.00117 0.0152 -0.00109 0.0185
V10 0.0113 0.0011 0.0059 0.0091 -0.0047 0.0187
V11 0.0102 -6.0E-4 0.0028 0.0102 6.0E-4 0.012
O12 0.016 -0.005 0.006 0.027 -0.004 0.024
O13 0.008 0.008 0.001 0.073 -0.002 0.031
O14 0.031 -0.011 0.019 0.032 -0.004 0.026
O15 0.032 0.004 -0.009 0.031 -0.017 0.069
O16 0.022 -0.002 0.008 0.029 0.003 0.021
O17 0.021 0.001 0.003 0.013 0.002 0.026
O18 0.019 -0.008 0.005 0.023 -0.01 0.035
O19 0.022 -0.006 0.007 0.021 0.0 0.017
O20 0.006 0.001 0.007 0.007 -0.004 0.022
O21 0.015 -0.005 0.006 0.009 -0.005 0.015
O22 0.011 -0.002 0.01 0.01 -0.001 0.016
O23 0.006 -0.003 0.006 0.019 -0.005 0.01
O24 0.014 0.002 0.011 0.015 0.003 0.038
O25 0.034 0.017 -0.032 0.021 -0.022 0.049
O26 0.007 -0.002 0.003 0.084 0.021 0.007
O27 0.029 0.0 0.015 0.012 0.004 0.011

