data_01-080-7655
#Copyright 2022 International Centre for Diffraction Data. All rights reserved.

_audit_creation_date                  2022-11-15
_audit_creation_method                'Generated by PDF-4+ 2022 4.22.0.2'

_chemical_name_systematic             'Bismuth Oxide'
_chemical_name_common                 'dibismuth trioxide'
_chemical_formula_moiety              'Bi2 O3'
_chemical_formula_sum                 'Bi2 O3'
_chemical_formula_weight              465.96

_cell_length_a                        4.9555(1)
_cell_length_b                        5.5854(2)
_cell_length_c                        12.7299(3)
_cell_angle_alpha                     90
_cell_angle_beta                      90
_cell_angle_gamma                     90
_cell_formula_units_Z                 4
_cell_volume                          352.34
_symmetry_cell_setting                orthorhombic
_symmetry_space_group_name_H-M        Pbnb
_symmetry_Int_Tables_number           56

loop_
_symmetry_equiv_pos_site_id
_symmetry_equiv_pos_as_xyz
1 x,y,z
2 -x,-y,-z
3 -x+1/2,y,-z+1/2
4 x+1/2,-y,z+1/2
5 -x,-y+1/2,z+1/2
6 x,y+1/2,-z+1/2
7 x+1/2,-y+1/2,-z
8 -x+1/2,y+1/2,z

loop_
_atom_site_label
_atom_site_type_symbol
_atom_site_fract_x
_atom_site_fract_y
_atom_site_fract_z
_atom_site_U_iso_or_equiv
_atom_site_symmetry_multiplicity
_atom_site_Wyckoff_symbol
_atom_site_occupancy
Bi1 Bi 0.03511 0.31723 0.373416 0.01203 8 e 1.0
O2 O 0.3758 0.1662 0.4413 0.01393 8 e 1.0
O3 O 0.25 0.5051 0.25 0.0173 4 c 1.0

loop_
_atom_site_aniso_label
_atom_site_aniso_U_11
_atom_site_aniso_U_12
_atom_site_aniso_U_13
_atom_site_aniso_U_22
_atom_site_aniso_U_23
_atom_site_aniso_U_33
Bi1 0.01208 -9.0E-4 -0.00216 0.01083 6.7E-4 0.01317
O2 0.0156 0.004 -0.0039 0.0107 -0.0026 0.0155
O3 0.031 0.0 0.0074 0.008 0.0 0.0129

