data_04-018-2787
#Copyright 2022 International Centre for Diffraction Data. All rights reserved.

_audit_creation_date                  2022-11-15
_audit_creation_method                'Generated by PDF-4+ 2022 4.22.0.2'

_chemical_name_systematic             'Bismuth Vanadium Oxide'
_chemical_formula_moiety              'V0.99 Bi11.66 O20'
_chemical_formula_sum                 'Bi11.66 O20 V0.99'
_chemical_formula_weight              2807.12

_cell_length_a                        10.19430(6)
_cell_length_b                        10.19430(6)
_cell_length_c                        10.19430(6)
_cell_angle_alpha                     90
_cell_angle_beta                      90
_cell_angle_gamma                     90
_cell_formula_units_Z                 2
_cell_volume                          1059.43
_symmetry_cell_setting                cubic
_symmetry_space_group_name_H-M        I23
_symmetry_Int_Tables_number           197

loop_
_symmetry_equiv_pos_site_id
_symmetry_equiv_pos_as_xyz
1 x,y,z
2 z,x,y
3 y,z,x
4 x,-y,-z
5 z,-x,-y
6 y,-z,-x
7 -x,y,-z
8 -z,x,-y
9 -y,z,-x
10 -x,-y,z
11 -z,-x,y
12 -y,-z,x
13 x+1/2,y+1/2,z+1/2
14 z+1/2,x+1/2,y+1/2
15 y+1/2,z+1/2,x+1/2
16 x+1/2,-y+1/2,-z+1/2
17 z+1/2,-x+1/2,-y+1/2
18 y+1/2,-z+1/2,-x+1/2
19 -x+1/2,y+1/2,-z+1/2
20 -z+1/2,x+1/2,-y+1/2
21 -y+1/2,z+1/2,-x+1/2
22 -x+1/2,-y+1/2,z+1/2
23 -z+1/2,-x+1/2,y+1/2
24 -y+1/2,-z+1/2,x+1/2

loop_
_atom_site_label
_atom_site_type_symbol
_atom_site_fract_x
_atom_site_fract_y
_atom_site_fract_z
_atom_site_U_iso_or_equiv
_atom_site_symmetry_multiplicity
_atom_site_Wyckoff_symbol
_atom_site_occupancy
Bi1 Bi 0.82241 0.6779 0.97679 0.01114 24 f 0.97
V2 V 0.0 0.0 0.0 0.0064 2 a 0.989
Bi3 Bi 0.0 0.0 0.0 0.0064 2 a 0.011
O4 O 0.8665 0.7522 0.5093 0.012 24 f 1.0
O5 O 0.801 0.801 0.801 0.0115 8 c 1.0
O6 O 0.0961 0.0961 0.0961 0.0181 8 c 1.0

