data_04-016-4174
#Copyright 2022 International Centre for Diffraction Data. All rights reserved.

_audit_creation_date                  2022-11-15
_audit_creation_method                'Generated by PDF-4+ 2022 4.22.0.2'

_chemical_name_systematic             'Bismuth Vanadium Oxide'
_chemical_name_common                 '\a-V2 Bi4 O11'
_chemical_formula_moiety              'V2 Bi4 O11'
_chemical_formula_sum                 'Bi4 O11 V2'
_chemical_formula_weight              1113.79

_cell_length_a                        16.5942(6)
_cell_length_b                        5.6100(3)
_cell_length_c                        15.2699(6)
_cell_angle_alpha                     90
_cell_angle_beta                      90
_cell_angle_gamma                     90.267(3)
_cell_formula_units_Z                 6
_cell_volume                          1421.51
_symmetry_cell_setting                monoclinic
_symmetry_space_group_name_H-M        A2
_symmetry_Int_Tables_number           5

loop_
_symmetry_equiv_pos_site_id
_symmetry_equiv_pos_as_xyz
1 x,y,z
2 -x,-y,z
3 x,y+1/2,z+1/2
4 -x,-y+1/2,z+1/2

loop_
_atom_site_label
_atom_site_type_symbol
_atom_site_fract_x
_atom_site_fract_y
_atom_site_fract_z
_atom_site_B_iso_or_equiv
_atom_site_symmetry_multiplicity
_atom_site_Wyckoff_symbol
_atom_site_occupancy
Bi1 Bi 0.0822 0.2059 0.165 1.17 4 c 1.0
Bi2 Bi 0.087 0.7238 0.324 1.17 4 c 1.0
Bi3 Bi 0.2544 0.7667 0.17 1.17 4 c 1.0
Bi4 Bi 0.2456 0.2876 0.333 1.17 4 c 1.0
Bi5 Bi 0.4149 0.2738 0.172 1.17 4 c 1.0
Bi6 Bi 0.4135 0.7614 0.336 1.17 4 c 1.0
V7 V 0.2466 0.316 -0.008 0.6 4 c 1.0
V8 V 0.0678 0.719 -0.001 0.6 4 c 1.0
V9 V 0.4324 0.829 -0.004 0.6 4 c 1.0
O10 O 0.0 0.0 0.25 2.06 2 a 1.0
O11 O 0.0 0.5 0.244 2.06 2 a 1.0
O12 O 0.5 0.0 0.261 2.06 2 b 1.0
O13 O 0.5 0.5 0.248 2.06 2 b 1.0
O14 O 0.172 -0.014 0.247 2.06 4 c 1.0
O15 O 0.332 -0.018 0.252 2.06 4 c 1.0
O16 O 0.331 0.501 0.258 2.06 4 c 1.0
O17 O 0.845 0.509 0.246 2.06 4 c 1.0
O18 O 0.216 0.18 0.088 3.7 4 c 1.0
O19 O 0.078 0.809 0.091 3.7 4 c 1.0
O20 O 0.425 0.728 0.114 3.7 4 c 1.0
O21 O 0.399 0.708 -0.105 3.7 4 c 0.5
O22 O 0.078 0.841 -0.094 3.7 4 c 1.0
O23 O 0.229 0.144 -0.092 3.7 4 c 1.0
O24 O 0.483 0.085 -0.014 3.7 4 c 0.5
O25 O 0.338 -0.04 0.028 3.7 4 c 1.0
O26 O 0.0507 0.346 -0.006 3.7 4 c 1.0
O27 O 0.34 0.442 0.025 3.7 4 c 1.0
O28 O 0.517 0.405 -0.035 3.7 4 c 0.5
O29 O 0.187 0.585 0.013 3.7 4 c 1.0

