data_04-010-5713
#Copyright 2022 International Centre for Diffraction Data. All rights reserved.

_audit_creation_date                  2022-11-15
_audit_creation_method                'Generated by PDF-4+ 2022 4.22.0.2'

_chemical_name_systematic             'Bismuth Vanadate'
_chemical_formula_moiety              'Bi ( V O4 )'
_chemical_formula_sum                 'Bi O4 V'
_chemical_formula_weight              323.92

_cell_length_a                        5.1956(1)
_cell_length_b                        5.0935(1)
_cell_length_c                        11.7044(2)
_cell_angle_alpha                     90
_cell_angle_beta                      90
_cell_angle_gamma                     90.383(1)
_cell_formula_units_Z                 4
_cell_volume                          309.74
_symmetry_cell_setting                monoclinic
_symmetry_space_group_name_H-M        I2/b
_symmetry_Int_Tables_number           15

loop_
_symmetry_equiv_pos_site_id
_symmetry_equiv_pos_as_xyz
1 x,y,z
2 -x,-y,-z
3 -x,-y+1/2,z
4 x,y+1/2,-z
5 x+1/2,y+1/2,z+1/2
6 -x+1/2,-y+1/2,-z+1/2
7 -x+1/2,-y,z+1/2
8 x+1/2,y,-z+1/2

loop_
_atom_site_label
_atom_site_type_symbol
_atom_site_fract_x
_atom_site_fract_y
_atom_site_fract_z
_atom_site_B_iso_or_equiv
_atom_site_symmetry_multiplicity
_atom_site_Wyckoff_symbol
_atom_site_occupancy
Bi1 Bi 0.0 0.25 0.6341 0.36 4 e 1.0
V2 V 0.0 0.25 0.1315 0.13 4 e 1.0
O3 O 0.143 0.512 0.211 1.9 8 f 1.0
O4 O 0.252 0.362 0.446 2.0 8 f 1.0

