data_04-003-4396
#Copyright 2022 International Centre for Diffraction Data. All rights reserved.

_audit_creation_date                  2022-11-15
_audit_creation_method                'Generated by PDF-4+ 2022 4.22.0.2'

_chemical_name_systematic             'Vanadium Oxide'
_chemical_name_common                 'vanadium(IV) oxide'
_chemical_formula_moiety              'V O2'
_chemical_formula_sum                 'O2 V'
_chemical_formula_weight              82.94

_cell_length_a                        12.152(2)
_cell_length_b                        3.7199(5)
_cell_length_c                        6.347(1)
_cell_angle_alpha                     90
_cell_angle_beta                      107.58(3)
_cell_angle_gamma                     90
_cell_formula_units_Z                 8
_cell_volume                          273.51
_symmetry_cell_setting                monoclinic
_symmetry_space_group_name_H-M        C2/m
_symmetry_Int_Tables_number           12

loop_
_symmetry_equiv_pos_site_id
_symmetry_equiv_pos_as_xyz
1 x,y,z
2 -x,-y,-z
3 x,-y,z
4 -x,y,-z
5 x+1/2,y+1/2,z
6 -x+1/2,-y+1/2,-z
7 x+1/2,-y+1/2,z
8 -x+1/2,y+1/2,-z

loop_
_atom_site_label
_atom_site_type_symbol
_atom_site_fract_x
_atom_site_fract_y
_atom_site_fract_z
_atom_site_U_iso_or_equiv
_atom_site_symmetry_multiplicity
_atom_site_Wyckoff_symbol
_atom_site_occupancy
V1 V 0.2964 0.0 0.7249 . 4 i 1.0
V2 V 0.404 0.0 0.3281 . 4 i 1.0
O3 O 0.3512 0.0 0.9944 . 4 i 1.0
O4 O 0.2328 0.0 0.3502 . 4 i 1.0
O5 O 0.4401 0.0 0.6545 . 4 i 1.0
O6 O 0.1046 0.0 0.6792 . 4 i 1.0

