data_00-047-0733
#Copyright 2022 International Centre for Diffraction Data. All rights reserved.

_audit_creation_date                  2022-11-15
_audit_creation_method                'Generated by PDF-4+ 2022 4.22.0.2'

_chemical_name_systematic             'Bismuth Vanadium Oxide'
_chemical_formula_moiety              'Bi23 V4 O44.5'
_chemical_formula_sum                 'Bi23 O44.5 V4'
_chemical_formula_weight              5722.26
_chemical_melting_point               1223.0

_cell_length_a                        11.545
_cell_length_b                        11.547
_cell_length_c                        20.665
_cell_angle_alpha                     92.49
_cell_angle_beta                      103.732
_cell_angle_gamma                     119.82
_cell_formula_units_Z                 2
_cell_volume                          2278.75
_symmetry_cell_setting                triclinic
_symmetry_space_group_name_H-M        P-1
_symmetry_Int_Tables_number           2

loop_
_symmetry_equiv_pos_site_id
_symmetry_equiv_pos_as_xyz
1 x,y,z
2 -x,-y,-z

loop_
_atom_site_label
_atom_site_type_symbol
_atom_site_fract_x
_atom_site_fract_y
_atom_site_fract_z
_atom_site_U_iso_or_equiv
_atom_site_symmetry_multiplicity
_atom_site_Wyckoff_symbol
_atom_site_occupancy
O1 O 0.0 0.333 0.334 . 2 i 1.0
Bi2 Bi 0.023 0.183 0.908 . 2 i 1.0
O3 O 0.027 0.014 0.708 . 2 i 0.75
O4 O 0.027 0.18 0.208 . 2 i 0.75
O5 O 0.027 0.347 0.708 . 2 i 0.75
O6 O 0.027 0.514 0.208 . 2 i 0.75
O7 O 0.027 0.847 0.208 . 2 i 0.75
Bi8 Bi 0.056 0.028 0.417 . 2 i 1.0
V9 V 0.056 0.361 0.417 . 2 i 1.0
Bi10 Bi 0.056 0.695 0.417 . 2 i 1.0
O11 O 0.073 0.703 0.556 . 2 i 0.75
O12 O 0.083 0.042 0.125 . 2 i 0.75
O13 O 0.083 0.208 0.625 . 2 i 0.75
O14 O 0.083 0.542 0.625 . 2 i 1.0
O15 O 0.083 0.708 0.125 . 2 i 0.75
Bi16 Bi 0.134 0.405 0.241 . 2 i 1.0
O17 O 0.139 0.07 0.542 . 2 i 1.0
O18 O 0.139 0.236 0.042 . 2 i 0.75
O19 O 0.139 0.403 0.542 . 2 i 1.0
O20 O 0.139 0.57 0.042 . 2 i 0.75
O21 O 0.139 0.903 0.042 . 2 i 0.75
O22 O 0.147 0.297 0.444 . 2 i 0.75
O23 O 0.147 0.517 0.444 . 2 i 1.0
O24 O 0.15 0.408 0.111 . 2 i 0.75
Bi25 Bi 0.167 0.25 0.75 . 2 i 1.0
Bi26 Bi 0.167 0.75 0.25 . 2 i 1.0
O27 O 0.194 0.097 0.958 . 2 i 0.75
Bi28 Bi 0.2 0.095 0.259 . 2 i 1.0
O29 O 0.223 0.445 0.001 . 2 i 0.75
O30 O 0.25 0.125 0.375 . 2 i 0.75
O31 O 0.25 0.292 0.875 . 2 i 0.75
O32 O 0.25 0.458 0.375 . 2 i 1.0
O33 O 0.25 0.792 0.375 . 2 i 0.75
Bi34 Bi 0.277 0.139 0.083 . 2 i 1.0
Bi35 Bi 0.277 0.305 0.583 . 2 i 1.0
V36 V 0.277 0.472 0.083 . 2 i 1.0
Bi37 Bi 0.277 0.639 0.583 . 2 i 1.0
Bi38 Bi 0.277 0.805 0.083 . 2 i 1.0
O39 O 0.306 0.153 0.792 . 2 i 0.75
O40 O 0.306 0.32 0.292 . 2 i 1.0
O41 O 0.306 0.653 0.292 . 2 i 0.75
Bi42 Bi 0.356 0.683 0.408 . 2 i 1.0
O43 O 0.361 0.014 0.708 . 2 i 0.75
O44 O 0.361 0.18 0.208 . 2 i 0.75
O45 O 0.361 0.347 0.708 . 2 i 1.0
O46 O 0.361 0.514 0.208 . 2 i 0.75
O47 O 0.361 0.847 0.208 . 2 i 0.75
O48 O 0.37 0.128 0.611 . 2 i 1.0
O49 O 0.37 0.408 0.111 . 2 i 1.0
O50 O 0.37 0.628 0.111 . 2 i 0.75
Bi51 Bi 0.389 0.0281 0.417 . 2 i 1.0
O52 O 0.417 0.042 0.125 . 2 i 0.75
Bi53 Bi 0.422 0.373 0.426 . 2 i 1.0
Bi54 Bi 0.467 0.405 0.241 . 2 i 1.0
O55 O 0.473 0.07 0.542 . 2 i 1.0
O56 O 0.473 0.403 0.542 . 2 i 1.0
O57 O 0.473 0.57 0.042 . 2 i 0.75
O58 O 0.48 0.017 0.944 . 2 i 0.75
Bi59 Bi 0.5 0.25 0.75 . 2 i 1.0
O60 O 0.52 0.203 0.056 . 2 i 1.0
O61 O 0.527 0.264 0.458 . 2 i 0.75
Bi62 Bi 0.533 0.095 0.259 . 2 i 1.0
O63 O 0.583 0.458 0.375 . 2 i 1.0
V64 V 0.611 0.139 0.083 . 2 i 1.0
Bi65 Bi 0.611 0.472 0.083 . 2 i 1.0
Bi66 Bi 0.611 0.805 0.083 . 2 i 1.0
O67 O 0.63 0.092 0.389 . 2 i 0.75
O68 O 0.639 0.32 0.292 . 2 i 1.0
O69 O 0.666 0.167 0.166 . 2 i 0.75
O70 O 0.694 0.014 0.708 . 2 i 0.75
O71 O 0.694 0.514 0.208 . 2 i 1.0
V72 V 0.723 0.028 0.417 . 2 i 1.0
O73 O 0.74 0.203 0.056 . 2 i 0.75
O74 O 0.75 0.042 0.125 . 2 i 0.75
O75 O 0.75 0.375 0.125 . 2 i 0.75
O76 O 0.777 0.055 0.499 . 2 i 0.75
Bi77 Bi 0.8 0.405 0.241 . 2 i 1.0
O78 O 0.85 0.092 0.389 . 2 i 0.75
Bi79 Bi 0.866 0.095 0.259 . 2 i 1.0
Bi80 Bi 0.911 0.127 0.074 . 2 i 1.0
Bi81 Bi 0.944 0.472 0.083 . 2 i 1.0

