data_01-080-3090
#Copyright 2022 International Centre for Diffraction Data. All rights reserved.

_audit_creation_date                  2022-11-15
_audit_creation_method                'Generated by PDF-4+ 2022 4.22.0.2'

_chemical_name_systematic             'Vanadium Oxide'
_chemical_formula_moiety              'V51.6 O64'
_chemical_formula_sum                 'O64 V51.6'
_chemical_formula_weight              3652.52

_cell_length_a                        11.746(1)
_cell_length_b                        11.746(1)
_cell_length_c                        8.2527(8)
_cell_angle_alpha                     90
_cell_angle_beta                      90
_cell_angle_gamma                     90
_cell_formula_units_Z                 1
_cell_volume                          1138.61
_symmetry_cell_setting                tetragonal
_symmetry_space_group_name_H-M        I41/amd
_symmetry_Int_Tables_number           141

loop_
_symmetry_equiv_pos_site_id
_symmetry_equiv_pos_as_xyz
1 x,y,z
2 -x,-y,-z
3 -x+1/2,-y,z+1/2
4 x+1/2,y,-z+1/2
5 -y+1/4,x+3/4,z+1/4
6 y+3/4,-x+1/4,-z+3/4
7 y+1/4,-x+1/4,z+3/4
8 -y+3/4,x+3/4,-z+1/4
9 -x+1/2,y,-z+1/2
10 x+1/2,-y,z+1/2
11 x,-y,-z
12 -x,y,z
13 y+1/4,x+3/4,-z+1/4
14 -y+3/4,-x+1/4,z+3/4
15 -y+1/4,-x+1/4,-z+3/4
16 y+3/4,x+3/4,z+1/4
17 x+1/2,y+1/2,z+1/2
18 -x+1/2,-y+1/2,-z+1/2
19 -x,-y+1/2,z
20 x,y+1/2,-z
21 -y+3/4,x+1/4,z+3/4
22 y+1/4,-x+3/4,-z+1/4
23 y+3/4,-x+3/4,z+1/4
24 -y+1/4,x+1/4,-z+3/4
25 -x,y+1/2,-z
26 x,-y+1/2,z
27 x+1/2,-y+1/2,-z+1/2
28 -x+1/2,y+1/2,z+1/2
29 y+3/4,x+1/4,-z+3/4
30 -y+1/4,-x+3/4,z+1/4
31 -y+3/4,-x+3/4,-z+1/4
32 y+1/4,x+1/4,z+3/4

loop_
_atom_site_label
_atom_site_type_symbol
_atom_site_fract_x
_atom_site_fract_y
_atom_site_fract_z
_atom_site_B_iso_or_equiv
_atom_site_symmetry_multiplicity
_atom_site_Wyckoff_symbol
_atom_site_occupancy
V1 V 0.0 0.1238 0.25 0.65 16 h 1.0
V2 V 0.125 0.0 0.0 0.93 16 f 1.0
V3 V 0.6225 0.0 0.0 0.65 16 f 0.975
V4 V 0.0 0.75 0.125 1.22 4 a 1.0
O5 O 0.0 0.1289 0.5 1.09 16 h 1.0
O6 O 0.0 0.8818 0.0 1.34 16 h 1.0
O7 O 0.1298 0.0033 0.25 1.02 32 i 1.0

