data_V2_Mn2_O7_-_04-008-4381
#Copyright 2019 International Centre for Diffraction Data. All rights reserved.

_audit_creation_date                  2019-11-18
_audit_creation_method                'Generated by PDF-4+ 2020 4.20.0.1'

_chemical_name_systematic             'Vanadium Manganese Oxide'
_chemical_name_common                 '\b-Mn2 ( V2 O7 )'
_chemical_formula_moiety              'V2 Mn2 O7'
_chemical_formula_sum                 'Mn2 O7 V2'
_chemical_formula_weight              323.75

_cell_length_a                        6.7129(6)
_cell_length_b                        8.7245(5)
_cell_length_c                        4.9693(4)
_cell_angle_alpha                     90.000(8)
_cell_angle_beta                      103.591(8)
_cell_angle_gamma                     90.000(8)
_cell_volume                          282.89
_cell_formula_units_Z                 2.00
_symmetry_cell_setting                monoclinic
_symmetry_space_group_name_H-M        C2/m
_symmetry_Int_Tables_number           12

loop_
_symmetry_equiv_pos_site_id
_symmetry_equiv_pos_as_xyz
1 x,y,z
2 -x,-y,-z
3 x,-y,z
4 -x,y,-z
5 x+1/2,y+1/2,z
6 -x+1/2,-y+1/2,-z
7 x+1/2,-y+1/2,z
8 -x+1/2,y+1/2,-z

loop_
_atom_site_label
_atom_site_type_symbol
_atom_site_fract_x
_atom_site_fract_y
_atom_site_fract_z
_atom_site_U_iso_or_equiv
_atom_site_symmetry_multiplicity
_atom_site_Wyckoff_symbol
_atom_site_occupancy
Mn1 Mn 0.0 0.8109 0.0 0.01147 4 g 1.0
V2 V 0.7341 0.0 0.4032 0.0111 4 i 1.0
O3 O 0.5 0.0 0.5 0.0347 2 d 1.0
O4 O 0.9093 0.0 0.7191 0.01583 4 i 1.0
O5 O 0.7322 0.1614 0.2123 0.01668 8 j 1.0

loop_
_atom_site_aniso_label
_atom_site_aniso_U_11
_atom_site_aniso_U_12
_atom_site_aniso_U_13
_atom_site_aniso_U_22
_atom_site_aniso_U_23
_atom_site_aniso_U_33
Mn1 0.012 0.0 0.0 0.009 0.0 0.012
V2 0.014 0.0 0.0 0.01 0.0 0.008
O3 0.028 0.0 0.022 0.042 0.0 0.041
O4 0.025 0.0 -0.001 0.011 0.0 0.009
O5 0.018 0.005 0.004 0.015 0.005 0.017

