data_V2_Mn_O4_-_04-011-8887
#Copyright 2019 International Centre for Diffraction Data. All rights reserved.

_audit_creation_date                  2019-11-18
_audit_creation_method                'Generated by PDF-4+ 2020 4.20.0.1'

_chemical_name_systematic             'Vanadium Manganese Oxide'
_chemical_formula_moiety              'V2 Mn O4'
_chemical_formula_sum                 'Mn O4 V2'
_chemical_formula_weight              220.82

_cell_length_a                        6.02501(5)
_cell_length_b                        6.02501(5)
_cell_length_c                        8.45917(8)
_cell_angle_alpha                     90
_cell_angle_beta                      90
_cell_angle_gamma                     90
_cell_volume                          307.07
_cell_formula_units_Z                 4.00
_symmetry_cell_setting                tetragonal
_symmetry_space_group_name_H-M        I41/amd
_symmetry_Int_Tables_number           141

loop_
_symmetry_equiv_pos_site_id
_symmetry_equiv_pos_as_xyz
1 x,y,z
2 -x,-y,-z
3 -x+1/2,-y,z+1/2
4 x+1/2,y,-z+1/2
5 -y+1/4,x+3/4,z+1/4
6 y+3/4,-x+1/4,-z+3/4
7 y+1/4,-x+1/4,z+3/4
8 -y+3/4,x+3/4,-z+1/4
9 -x+1/2,y,-z+1/2
10 x+1/2,-y,z+1/2
11 x,-y,-z
12 -x,y,z
13 y+1/4,x+3/4,-z+1/4
14 -y+3/4,-x+1/4,z+3/4
15 -y+1/4,-x+1/4,-z+3/4
16 y+3/4,x+3/4,z+1/4
17 x+1/2,y+1/2,z+1/2
18 -x+1/2,-y+1/2,-z+1/2
19 -x,-y+1/2,z
20 x,y+1/2,-z
21 -y+3/4,x+1/4,z+3/4
22 y+1/4,-x+3/4,-z+1/4
23 y+3/4,-x+3/4,z+1/4
24 -y+1/4,x+1/4,-z+3/4
25 -x,y+1/2,-z
26 x,-y+1/2,z
27 x+1/2,-y+1/2,-z+1/2
28 -x+1/2,y+1/2,z+1/2
29 y+3/4,x+1/4,-z+3/4
30 -y+1/4,-x+3/4,z+1/4
31 -y+3/4,-x+3/4,-z+1/4
32 y+1/4,x+1/4,z+3/4

loop_
_atom_site_label
_atom_site_type_symbol
_atom_site_fract_x
_atom_site_fract_y
_atom_site_fract_z
_atom_site_B_iso_or_equiv
_atom_site_symmetry_multiplicity
_atom_site_Wyckoff_symbol
_atom_site_occupancy
Mn1 Mn 0.0 0.75 0.125 . 4 a 1.0
V2 V 0.0 0.0 0.5 . 8 d 1.0
O3 O 0.0 0.0243 0.2655 . 16 h 1.0

