data_Nb_O2_-_04-007-1440
#Copyright 2019 International Centre for Diffraction Data. All rights reserved.

_audit_creation_date                  2019-11-15
_audit_creation_method                'Generated by PDF-4+ 2020 4.20.0.1'

_chemical_name_systematic             'Niobium Oxide'
_chemical_name_common                 'niobium(IV) oxide, \b-Nb O2'
_chemical_formula_moiety              'Nb O2'
_chemical_formula_sum                 'Nb O2'
_chemical_formula_weight              124.90

_cell_length_a                        9.693(3)
_cell_length_b                        9.693(3)
_cell_length_c                        5.985(1)
_cell_angle_alpha                     90
_cell_angle_beta                      90
_cell_angle_gamma                     90
_cell_volume                          562.32
_cell_formula_units_Z                 16.00
_symmetry_cell_setting                tetragonal
_symmetry_space_group_name_H-M        I41
_symmetry_Int_Tables_number           80

loop_
_symmetry_equiv_pos_site_id
_symmetry_equiv_pos_as_xyz
1 x,y,z
2 -x,-y,z
3 -y,x+1/2,z+1/4
4 y,-x+1/2,z+1/4
5 x+1/2,y+1/2,z+1/2
6 -x+1/2,-y+1/2,z+1/2
7 -y+1/2,x,z+3/4
8 y+1/2,-x,z+3/4

loop_
_atom_site_label
_atom_site_type_symbol
_atom_site_fract_x
_atom_site_fract_y
_atom_site_fract_z
_atom_site_U_iso_or_equiv
_atom_site_symmetry_multiplicity
_atom_site_Wyckoff_symbol
_atom_site_occupancy
Nb1 Nb 0.2621 0.5076 0.0299 . 8 b 1.0
Nb2 Nb 0.2455 0.4909 0.4804 . 8 b 1.0
O3 O 0.3974 0.1497 0.0077 . 8 b 1.0
O4 O 0.1102 0.3642 -0.0089 . 8 b 1.0
O5 O 0.6086 0.3609 0.5064 . 8 b 1.0
O6 O 0.65 0.1038 0.2484 . 8 b 1.0

