data_Nb2_O5_-_04-007-0495
#Copyright 2019 International Centre for Diffraction Data. All rights reserved.

_audit_creation_date                  2019-11-15
_audit_creation_method                'Generated by PDF-4+ 2020 4.20.0.1'

_chemical_name_systematic             'Niobium Oxide'
_chemical_name_common                 'diniobium oxide'
_chemical_formula_moiety              'Nb2 O5'
_chemical_formula_sum                 'Nb2 O5'
_chemical_formula_weight              265.81

_cell_length_a                        3.983(4)
_cell_length_b                        3.826(4)
_cell_length_c                        12.79(1)
_cell_angle_alpha                     90.00(5)
_cell_angle_beta                      90.75(5)
_cell_angle_gamma                     90.00(5)
_cell_volume                          194.89
_cell_formula_units_Z                 2.00
_symmetry_cell_setting                monoclinic
_symmetry_space_group_name_H-M        A2/m
_symmetry_Int_Tables_number           12

loop_
_symmetry_equiv_pos_site_id
_symmetry_equiv_pos_as_xyz
1 x,y,z
2 -x,-y,-z
3 x,-y,z
4 -x,y,-z
5 x,y+1/2,z+1/2
6 -x,-y+1/2,-z+1/2
7 x,-y+1/2,z+1/2
8 -x,y+1/2,-z+1/2

loop_
_atom_site_label
_atom_site_type_symbol
_atom_site_fract_x
_atom_site_fract_y
_atom_site_fract_z
_atom_site_U_iso_or_equiv
_atom_site_symmetry_multiplicity
_atom_site_Wyckoff_symbol
_atom_site_occupancy
Nb1 Nb 0.07 0.0 0.146 . 4 i 1.0
O2 O 0.0 0.0 0.0 . 2 a 1.0
O3 O 0.0 0.0 0.68 . 4 i 1.0
O4 O 0.5 0.0 0.16 . 4 i 1.0

