data_V2_O3_-_04-007-0625
#Copyright 2019 International Centre for Diffraction Data. All rights reserved.

_audit_creation_date                  2019-11-15
_audit_creation_method                'Generated by PDF-4+ 2020 4.20.0.1'

_chemical_name_systematic             'Vanadium Oxide'
_chemical_name_common                 karelianite
_chemical_formula_moiety              'V2 O3'
_chemical_formula_sum                 'O3 V2'
_chemical_formula_weight              149.88

_cell_length_a                        7.255(3)
_cell_length_b                        5.002(2)
_cell_length_c                        5.548(2)
_cell_angle_alpha                     90.00(2)
_cell_angle_beta                      96.75(2)
_cell_angle_gamma                     90.00(2)
_cell_volume                          199.94
_cell_formula_units_Z                 4.00
_symmetry_cell_setting                monoclinic
_symmetry_space_group_name_H-M        I2/a
_symmetry_Int_Tables_number           15

loop_
_symmetry_equiv_pos_site_id
_symmetry_equiv_pos_as_xyz
1 x,y,z
2 -x,-y,-z
3 x+1/2,-y,z
4 -x+1/2,y,-z
5 x+1/2,y+1/2,z+1/2
6 -x+1/2,-y+1/2,-z+1/2
7 x,-y+1/2,z+1/2
8 -x,y+1/2,-z+1/2

loop_
_atom_site_label
_atom_site_type_symbol
_atom_site_fract_x
_atom_site_fract_y
_atom_site_fract_z
_atom_site_B_iso_or_equiv
_atom_site_symmetry_multiplicity
_atom_site_Wyckoff_symbol
_atom_site_occupancy
V1 V 0.3438 8.0E-4 0.2991 0.6 8 f 1.0
O2 O 0.407 0.845 0.652 0.8 8 f 1.0
O3 O 0.25 0.309 0.5 0.87 4 e 1.0

