data_Mn3_(_V_O4_)2_-_01-080-9464
#Copyright 2019 International Centre for Diffraction Data. All rights reserved.

_audit_creation_date                  2019-11-15
_audit_creation_method                'Generated by PDF-4+ 2020 4.20.0.1'

_chemical_name_systematic             'Manganese Vanadate'
_chemical_name_common                 '\b-Mn3 ( V O4 )2, trimanganese bis(vanadate(V))'
_chemical_formula_moiety              'Mn3 ( V O4 )2'
_chemical_formula_sum                 'Mn3 O8 V2'
_chemical_formula_weight              394.69

_cell_length_a                        6.2595(2)
_cell_length_b                        11.7254(4)
_cell_length_c                        8.4938(2)
_cell_angle_alpha                     90
_cell_angle_beta                      90
_cell_angle_gamma                     90
_cell_volume                          623.40
_cell_formula_units_Z                 4.00
_symmetry_cell_setting                orthorhombic
_symmetry_space_group_name_H-M        Cmca
_symmetry_Int_Tables_number           64

loop_
_symmetry_equiv_pos_site_id
_symmetry_equiv_pos_as_xyz
1 x,y,z
2 -x,-y,-z
3 x,-y,-z
4 -x,y,z
5 x,-y+1/2,z+1/2
6 -x,y+1/2,-z+1/2
7 x,y+1/2,-z+1/2
8 -x,-y+1/2,z+1/2
9 x+1/2,y+1/2,z
10 -x+1/2,-y+1/2,-z
11 x+1/2,-y+1/2,-z
12 -x+1/2,y+1/2,z
13 x+1/2,-y,z+1/2
14 -x+1/2,y,-z+1/2
15 x+1/2,y,-z+1/2
16 -x+1/2,-y,z+1/2

loop_
_atom_site_label
_atom_site_type_symbol
_atom_site_fract_x
_atom_site_fract_y
_atom_site_fract_z
_atom_site_B_iso_or_equiv
_atom_site_symmetry_multiplicity
_atom_site_Wyckoff_symbol
_atom_site_occupancy
Mn1 Mn 0.0 0.0 0.0 0.53 4 a 1.0
Mn2 Mn 0.25 0.13726 0.25 0.48 8 e 1.0
V3 V 0.0 0.37981 0.12038 0.28 8 f 1.0
O4 O 0.0 0.2544 0.2255 0.52 8 f 1.0
O5 O 0.0 -3.0E-4 0.2486 0.44 8 f 1.0
O6 O 0.2775 0.1177 0.9959 0.56 16 g 1.0

