data_Nb8.4_O21_-_04-018-7030
#Copyright 2019 International Centre for Diffraction Data. All rights reserved.

_audit_creation_date                  2019-11-15
_audit_creation_method                'Generated by PDF-4+ 2020 4.20.0.1'

_chemical_name_systematic             'Niobium Oxide'
_chemical_formula_moiety              'Nb8.4 O21'
_chemical_formula_sum                 'Nb8.4 O21'
_chemical_formula_weight              1116.39

_cell_length_a                        6.1937(11)
_cell_length_b                        29.136(6)
_cell_length_c                        3.8822(7)
_cell_angle_alpha                     90
_cell_angle_beta                      90
_cell_angle_gamma                     90
_cell_volume                          700.58
_cell_formula_units_Z                 2.00
_symmetry_cell_setting                orthorhombic
_symmetry_space_group_name_H-M        Pbam
_symmetry_Int_Tables_number           55

loop_
_symmetry_equiv_pos_site_id
_symmetry_equiv_pos_as_xyz
1 x,y,z
2 -x,-y,-z
3 -x,-y,z
4 x,y,-z
5 x+1/2,-y+1/2,-z
6 -x+1/2,y+1/2,z
7 -x+1/2,y+1/2,-z
8 x+1/2,-y+1/2,z

loop_
_atom_site_label
_atom_site_type_symbol
_atom_site_fract_x
_atom_site_fract_y
_atom_site_fract_z
_atom_site_U_iso_or_equiv
_atom_site_symmetry_multiplicity
_atom_site_Wyckoff_symbol
_atom_site_occupancy
O1 O 0.2823 0.03881 0.0 . 4 g 1.0
O2 O 0.19 0.15621 0.0 . 4 g 1.0
O3 O 0.246 0.27816 0.0 . 4 g 1.0
O4 O 0.2616 0.41403 0.0 . 4 g 1.0
O5 O 0.0627 0.08789 0.5 . 4 h 1.0
O6 O 0.07 0.21991 0.5 . 4 h 1.0
O7 O 0.3423 0.34409 0.5 . 4 h 1.0
O8 O 0.1166 0.46876 0.5 . 4 h 1.0
O9 O 0.436 0.10596 0.5 . 4 h 1.0
O10 O 0.456 0.1964 0.5 . 4 h 1.0
O11 O 0.0 0.0 0.5 . 2 b 1.0
Nb12 Nb 0.24942 0.03209 0.58731 . 8 i 0.5
Nb13 Nb 0.257 0.16399 0.60593 . 8 i 0.5
Nb14 Nb 0.20687 0.28791 0.62171 . 8 i 0.5
Nb15 Nb 0.26649 0.40193 0.58124 . 8 i 0.5
Nb16 Nb 0.05 0.3379 0.0 . 4 g 0.08
Nb17 Nb 0.43 0.4776 0.0 . 4 g 0.08
Nb18 Nb 0.435 0.213 0.0 . 4 g 0.04

