data_V2_O5_-_04-014-4662
#Copyright 2019 International Centre for Diffraction Data. All rights reserved.

_audit_creation_date                  2019-11-15
_audit_creation_method                'Generated by PDF-4+ 2020 4.20.0.1'

_chemical_name_systematic             'Vanadium Oxide'
_chemical_name_common                 '\b-V2 O5'
_chemical_formula_moiety              'V2 O5'
_chemical_formula_sum                 'O5 V2'
_chemical_formula_weight              181.88

_cell_length_a                        7.1118(6)
_cell_length_b                        3.5791(2)
_cell_length_c                        6.2903(3)
_cell_angle_alpha                     90.00(1)
_cell_angle_beta                      90.15(1)
_cell_angle_gamma                     90.00(1)
_cell_volume                          160.11
_cell_formula_units_Z                 2.00
_symmetry_cell_setting                monoclinic
_symmetry_space_group_name_H-M        P21/m
_symmetry_Int_Tables_number           11

loop_
_symmetry_equiv_pos_site_id
_symmetry_equiv_pos_as_xyz
1 x,y,z
2 -x,-y,-z
3 -x,y+1/2,-z
4 x,-y+1/2,z

loop_
_atom_site_label
_atom_site_type_symbol
_atom_site_fract_x
_atom_site_fract_y
_atom_site_fract_z
_atom_site_U_iso_or_equiv
_atom_site_symmetry_multiplicity
_atom_site_Wyckoff_symbol
_atom_site_occupancy
V1 V 0.1017 0.25 0.8073 . 2 e 1.0
V2 V 0.2786 0.25 0.263 . 2 e 1.0
O3 O 0.824 0.75 0.4382 . 2 e 1.0
O4 O 0.9696 0.25 0.145 . 2 e 1.0
O5 O 0.4937 0.25 0.319 . 2 e 1.0
O6 O 0.3007 0.25 0.9663 . 2 e 1.0
O7 O 0.2034 0.75 0.2635 . 2 e 1.0

