data_V16_O3_-_00-027-1338
#Copyright 2019 International Centre for Diffraction Data. All rights reserved.

_audit_creation_date                  2019-11-15
_audit_creation_method                'Generated by PDF-4+ 2020 4.20.0.1'

_chemical_name_systematic             'Vanadium Oxide'
_chemical_formula_moiety              'V16 O3'
_chemical_formula_sum                 'O3 V16'
_chemical_formula_weight              863.06

_cell_length_a                        11.960
_cell_length_b                        11.960
_cell_length_c                        6.604
_cell_angle_alpha                     90
_cell_angle_beta                      90
_cell_angle_gamma                     90
_cell_volume                          944.65
_cell_formula_units_Z                 4.00
_symmetry_cell_setting                tetragonal
_symmetry_space_group_name_H-M        I4/mmm
_symmetry_Int_Tables_number           139

loop_
_symmetry_equiv_pos_site_id
_symmetry_equiv_pos_as_xyz
1 x,y,z
2 -x,-y,-z
3 -x,-y,z
4 x,y,-z
5 -x,y,z
6 x,-y,-z
7 x,-y,z
8 -x,y,-z
9 -y,x,z
10 y,-x,-z
11 y,-x,z
12 -y,x,-z
13 y,x,z
14 -y,-x,-z
15 -y,-x,z
16 y,x,-z
17 x+1/2,y+1/2,z+1/2
18 -x+1/2,-y+1/2,-z+1/2
19 -x+1/2,-y+1/2,z+1/2
20 x+1/2,y+1/2,-z+1/2
21 -x+1/2,y+1/2,z+1/2
22 x+1/2,-y+1/2,-z+1/2
23 x+1/2,-y+1/2,z+1/2
24 -x+1/2,y+1/2,-z+1/2
25 -y+1/2,x+1/2,z+1/2
26 y+1/2,-x+1/2,-z+1/2
27 y+1/2,-x+1/2,z+1/2
28 -y+1/2,x+1/2,-z+1/2
29 y+1/2,x+1/2,z+1/2
30 -y+1/2,-x+1/2,-z+1/2
31 -y+1/2,-x+1/2,z+1/2
32 y+1/2,x+1/2,-z+1/2

loop_
_atom_site_label
_atom_site_type_symbol
_atom_site_fract_x
_atom_site_fract_y
_atom_site_fract_z
_atom_site_U_iso_or_equiv
_atom_site_symmetry_multiplicity
_atom_site_Wyckoff_symbol
_atom_site_occupancy
V1 V 0.0 0.0 0.0 . 2 a 1.0
V2 V 0.0 0.0 0.5 . 2 b 1.0
V3 V 0.0 0.5 0.0 . 4 c 1.0
V4 V 0.25 0.25 0.0 . 8 h 1.0
V5 V 0.25 0.0 0.0 . 8 i 1.0
V6 V 0.25 0.5 0.0 . 8 j 1.0
V7 V 0.125 0.625 0.25 . 16 k 1.0
V8 V 0.125 0.125 0.25 . 16 m 1.0
O9 O 0.0 0.5 0.25 . 4 d 1.0
O10 O 0.125 0.125 0.0 . 8 h 1.0

