data_V6_O13_-_04-007-0978
#Copyright 2019 International Centre for Diffraction Data. All rights reserved.

_audit_creation_date                  2019-11-15
_audit_creation_method                'Generated by PDF-4+ 2020 4.20.0.1'

_chemical_name_systematic             'Vanadium Oxide'
_chemical_name_common                 '\b-V6 O13'
_chemical_formula_moiety              'V6 O13'
_chemical_formula_sum                 'O13 V6'
_chemical_formula_weight              513.64

_cell_length_a                        11.922
_cell_length_b                        19.912
_cell_length_c                        3.68
_cell_angle_alpha                     90
_cell_angle_beta                      90
_cell_angle_gamma                     90
_cell_volume                          873.60
_cell_formula_units_Z                 4.00
_symmetry_cell_setting                orthorhombic
_symmetry_space_group_name_H-M        Cmme
_symmetry_Int_Tables_number           67

loop_
_symmetry_equiv_pos_site_id
_symmetry_equiv_pos_as_xyz
1 x,y,z
2 -x,-y,-z
3 x,-y,-z
4 -x,y,z
5 -x,y+1/2,-z
6 x,-y+1/2,z
7 -x,-y+1/2,z
8 x,y+1/2,-z
9 x+1/2,y+1/2,z
10 -x+1/2,-y+1/2,-z
11 x+1/2,-y+1/2,-z
12 -x+1/2,y+1/2,z
13 -x+1/2,y,-z
14 x+1/2,-y,z
15 -x+1/2,-y,z
16 x+1/2,y,-z

loop_
_atom_site_label
_atom_site_type_symbol
_atom_site_fract_x
_atom_site_fract_y
_atom_site_fract_z
_atom_site_U_iso_or_equiv
_atom_site_symmetry_multiplicity
_atom_site_Wyckoff_symbol
_atom_site_occupancy
V1 V 0.15 0.07 0.75 . 16 o 1.0
V2 V 0.14 0.25 0.75 . 8 n 1.0
O3 O 0.18 0.05 0.25 . 16 o 1.0
O4 O 0.14 0.15 0.75 . 16 o 1.0
O5 O 0.18 0.25 0.25 . 8 n 1.0
O6 O 0.0 0.05 0.75 . 8 m 1.0
O7 O 0.0 0.25 0.75 . 4 g 1.0

