data_V_Mn5_O8_-_04-019-6892
#Copyright 2019 International Centre for Diffraction Data. All rights reserved.

_audit_creation_date                  2019-11-15
_audit_creation_method                'Generated by PDF-4+ 2020 4.20.0.1'

_chemical_name_systematic             'Manganese Vanadium Oxide'
_chemical_formula_moiety              'V Mn5 O8'
_chemical_formula_sum                 'Mn5 O8 V'
_chemical_formula_weight              453.62

_cell_length_a                        5.4320(2)
_cell_length_b                        6.2066(2)
_cell_length_c                        10.2443(4)
_cell_angle_alpha                     107.035(3)
_cell_angle_beta                      99.469(3)
_cell_angle_gamma                     90.422(4)
_cell_volume                          325.16
_cell_formula_units_Z                 2.00
_symmetry_cell_setting                triclinic
_symmetry_space_group_name_H-M        P-1
_symmetry_Int_Tables_number           2

loop_
_symmetry_equiv_pos_site_id
_symmetry_equiv_pos_as_xyz
1 x,y,z
2 -x,-y,-z

loop_
_atom_site_label
_atom_site_type_symbol
_atom_site_fract_x
_atom_site_fract_y
_atom_site_fract_z
_atom_site_U_iso_or_equiv
_atom_site_symmetry_multiplicity
_atom_site_Wyckoff_symbol
_atom_site_occupancy
Mn1 Mn 0.0 0.0 0.0 . 1 a 1.0
Mn2 Mn 0.0 0.5 0.0 . 1 c 1.0
Mn3 Mn 0.756 0.638 0.2685 . 2 i 1.0
Mn4 Mn 0.497 0.751 0.9989 . 2 i 1.0
Mn5 Mn 0.257 0.892 0.2629 . 2 i 1.0
Mn6 Mn 0.746 0.625 0.7368 . 2 i 1.0
V7 V 0.796 0.212 0.4259 . 2 i 1.0
O8 O 0.639 0.405 0.368 . 2 i 1.0
O9 O 0.354 0.041 0.63 . 2 i 1.0
O10 O 0.887 0.357 0.12 . 2 i 1.0
O11 O 0.093 0.216 0.895 . 2 i 1.0
O12 O 0.613 0.426 0.862 . 2 i 1.0
O13 O 0.667 0.943 0.887 . 2 i 1.0
O14 O 0.081 0.184 0.372 . 2 i 1.0
O15 O 0.134 0.694 0.387 . 2 i 1.0

