data_V_O2_-_04-009-8326
#Copyright 2019 International Centre for Diffraction Data. All rights reserved.

_audit_creation_date                  2019-11-15
_audit_creation_method                'Generated by PDF-4+ 2020 4.20.0.1'

_chemical_name_systematic             'Vanadium Oxide'
_chemical_formula_moiety              'V O2'
_chemical_formula_sum                 'O2 V'
_chemical_formula_weight              82.94

_cell_length_a                        12.03
_cell_length_b                        3.693
_cell_length_c                        6.42
_cell_angle_alpha                     90
_cell_angle_beta                      106.6
_cell_angle_gamma                     90
_cell_volume                          273.33
_cell_formula_units_Z                 8.00
_symmetry_cell_setting                monoclinic
_symmetry_space_group_name_H-M        C2/m
_symmetry_Int_Tables_number           12

loop_
_symmetry_equiv_pos_site_id
_symmetry_equiv_pos_as_xyz
1 x,y,z
2 -x,-y,-z
3 x,-y,z
4 -x,y,-z
5 x+1/2,y+1/2,z
6 -x+1/2,-y+1/2,-z
7 x+1/2,-y+1/2,z
8 -x+1/2,y+1/2,-z

loop_
_atom_site_label
_atom_site_type_symbol
_atom_site_fract_x
_atom_site_fract_y
_atom_site_fract_z
_atom_site_U_iso_or_equiv
_atom_site_symmetry_multiplicity
_atom_site_Wyckoff_symbol
_atom_site_occupancy
O1 O 0.4427 0.5 0.6329 . 4 i 1.0
O2 O 0.2371 0.5 0.3424 . 4 i 1.0
O3 O 0.1439 0.5 0.7236 . 4 i 1.0
O4 O 0.3722 0.5 0.9902 . 4 i 1.0
V5 V 0.3145 0.5 0.7222 . 4 i 1.0
V6 V 0.4047 0.5 0.263 . 4 i 1.0

