data_Mn3_(_V_O4_)2_-_01-082-8157
#Copyright 2019 International Centre for Diffraction Data. All rights reserved.

_audit_creation_date                  2019-11-18
_audit_creation_method                'Generated by PDF-4+ 2020 4.20.0.1'

_chemical_name_systematic             'Manganese Vanadate'
_chemical_name_common                 'trimanganese divanadate'
_chemical_formula_moiety              'Mn3 ( V O4 )2'
_chemical_formula_sum                 'Mn3 O8 V2'
_chemical_formula_weight              394.69

_cell_length_a                        7.0029(7)
_cell_length_b                        7.0029(7)
_cell_length_c                        19.586(4)
_cell_angle_alpha                     90
_cell_angle_beta                      90
_cell_angle_gamma                     90
_cell_volume                          960.51
_cell_formula_units_Z                 6.00
_symmetry_cell_setting                tetragonal
_symmetry_space_group_name_H-M        I-42d
_symmetry_Int_Tables_number           122

loop_
_symmetry_equiv_pos_site_id
_symmetry_equiv_pos_as_xyz
1 x,y,z
2 -x+1/2,y,-z+3/4
3 -x,-y,z
4 x+1/2,-y,-z+3/4
5 -y,x,-z
6 y+1/2,x,z+3/4
7 y,-x,-z
8 -y+1/2,-x,z+3/4
9 x+1/2,y+1/2,z+1/2
10 -x,y+1/2,-z+1/4
11 -x+1/2,-y+1/2,z+1/2
12 x,-y+1/2,-z+1/4
13 -y+1/2,x+1/2,-z+1/2
14 y,x+1/2,z+1/4
15 y+1/2,-x+1/2,-z+1/2
16 -y,-x+1/2,z+1/4

loop_
_atom_site_label
_atom_site_type_symbol
_atom_site_fract_x
_atom_site_fract_y
_atom_site_fract_z
_atom_site_U_iso_or_equiv
_atom_site_symmetry_multiplicity
_atom_site_Wyckoff_symbol
_atom_site_occupancy
Mn1 Mn 0.0 0.0 0.2266 0.001 8 c 1.0
Mn2 Mn 0.2408 0.25 0.125 0.001 8 d 1.0
Mn3 Mn 0.0 0.0 0.5 0.001 4 b 0.5
V4 V 0.0 0.0 0.0 0.001 4 a 1.0
V5 V 0.654 0.25 0.125 0.001 8 d 1.0
O6 O 0.051 0.201 0.0484 0.0042 16 e 0.5
O7 O 0.05 0.209 0.0419 0.0042 16 e 0.5
O8 O 0.053 0.279 0.3925 0.0042 16 e 0.5
O9 O 0.04 0.272 0.4029 0.0042 16 e 0.5
O10 O 0.495 0.195 0.0626 0.0042 16 e 0.5
O11 O 0.498 0.225 0.0515 0.0042 16 e 0.5

