data_V_Mn5_O8_-_04-019-6891
#Copyright 2019 International Centre for Diffraction Data. All rights reserved.

_audit_creation_date                  2019-11-15
_audit_creation_method                'Generated by PDF-4+ 2020 4.20.0.1'

_chemical_name_systematic             'Manganese Vanadium Oxide'
_chemical_formula_moiety              'V Mn5 O8'
_chemical_formula_sum                 'Mn5 O8 V'
_chemical_formula_weight              453.62

_cell_length_a                        19.5605(10)
_cell_length_b                        6.2184(3)
_cell_length_c                        5.4276(3)
_cell_angle_alpha                     90.000(4)
_cell_angle_beta                      100.078(4)
_cell_angle_gamma                     90.000(4)
_cell_volume                          650.00
_cell_formula_units_Z                 4.00
_symmetry_cell_setting                monoclinic
_symmetry_space_group_name_H-M        C2/m
_symmetry_Int_Tables_number           12

loop_
_symmetry_equiv_pos_site_id
_symmetry_equiv_pos_as_xyz
1 x,y,z
2 -x,-y,-z
3 x,-y,z
4 -x,y,-z
5 x+1/2,y+1/2,z
6 -x+1/2,-y+1/2,-z
7 x+1/2,-y+1/2,z
8 -x+1/2,y+1/2,-z

loop_
_atom_site_label
_atom_site_type_symbol
_atom_site_fract_x
_atom_site_fract_y
_atom_site_fract_z
_atom_site_U_iso_or_equiv
_atom_site_symmetry_multiplicity
_atom_site_Wyckoff_symbol
_atom_site_occupancy
Mn1 Mn 0.0 0.0 0.0 . 2 a 1.0
Mn2 Mn 0.0 0.5 0.0 . 2 b 1.0
Mn3 Mn 0.6317 0.0 0.7569 . 4 i 1.0
Mn4 Mn 0.0 0.2418 0.5 . 4 h 1.0
Mn5 Mn 0.632 0.7411 0.255 . 8 j 1.0
V6 V 0.2135 0.0 0.7987 . 4 i 1.0
O7 O 0.1835 0.7772 0.644 . 8 j 1.0
O8 O 0.5539 0.223 0.891 . 8 j 1.0
O9 O 0.4346 0.0 0.62 . 4 i 1.0
O10 O 0.942 0.0 0.659 . 4 i 1.0
O11 O 0.1873 0.0 0.083 . 4 i 1.0
O12 O 0.6921 0.0 0.141 . 4 i 1.0

