data_Nb12_O29_-_00-016-0734
#Copyright 2019 International Centre for Diffraction Data. All rights reserved.

_audit_creation_date                  2019-11-15
_audit_creation_method                'Generated by PDF-4+ 2020 4.20.0.1'

_chemical_name_systematic             'Niobium Oxide'
_chemical_formula_moiety              'Nb12 O29'
_chemical_formula_sum                 'Nb12 O29'
_chemical_formula_weight              1578.86

_cell_length_a                        28.90(2)
_cell_length_b                        3.835(2)
_cell_length_c                        20.72(2)
_cell_angle_alpha                     90
_cell_angle_beta                      90
_cell_angle_gamma                     90
_cell_volume                          2296.43
_cell_formula_units_Z                 4.00
_symmetry_cell_setting                orthorhombic
_symmetry_space_group_name_H-M        Amma
_symmetry_Int_Tables_number           63

loop_
_symmetry_equiv_pos_site_id
_symmetry_equiv_pos_as_xyz
1 x,y,z
2 -x,-y,-z
3 -x,y,-z
4 x,-y,z
5 -x+1/2,y,z
6 x+1/2,-y,-z
7 x+1/2,y,-z
8 -x+1/2,-y,z
9 x,y+1/2,z+1/2
10 -x,-y+1/2,-z+1/2
11 -x,y+1/2,-z+1/2
12 x,-y+1/2,z+1/2
13 -x+1/2,y+1/2,z+1/2
14 x+1/2,-y+1/2,-z+1/2
15 x+1/2,y+1/2,-z+1/2
16 -x+1/2,-y+1/2,z+1/2

loop_
_atom_site_label
_atom_site_type_symbol
_atom_site_fract_x
_atom_site_fract_y
_atom_site_fract_z
_atom_site_U_iso_or_equiv
_atom_site_symmetry_multiplicity
_atom_site_Wyckoff_symbol
_atom_site_occupancy
Nb1 Nb 0.049 0.0 0.033 . 8 f 1.0
Nb2 Nb 0.049 0.0 0.67 . 8 f 1.0
Nb3 Nb 0.049 0.0 0.852 . 8 f 1.0
Nb4 Nb 0.184 0.0 0.034 . 8 f 1.0
Nb5 Nb 0.185 0.0 0.669 . 8 f 1.0
Nb6 Nb 0.187 0.0 0.852 . 8 f 1.0
O7 O 0.25 0.0 0.04 . 4 c 1.0
O8 O 0.25 0.0 0.66 . 4 c 1.0
O9 O 0.25 0.0 0.85 . 4 c 1.0
O10 O 0.05 0.0 0.58 . 8 f 1.0
O11 O 0.03 0.0 0.16 . 8 f 1.0
O12 O 0.05 0.0 0.76 . 8 f 1.0
O13 O 0.02 0.0 0.34 . 8 f 1.0
O14 O 0.05 0.0 0.95 . 8 f 1.0
O15 O 0.12 0.0 0.04 . 8 f 1.0
O16 O 0.11 0.0 0.66 . 8 f 1.0
O17 O 0.12 0.0 0.85 . 8 f 1.0
O18 O 0.18 0.0 0.55 . 8 f 1.0
O19 O 0.19 0.0 0.14 . 8 f 1.0
O20 O 0.18 0.0 0.76 . 8 f 1.0
O21 O 0.19 0.0 0.35 . 8 f 1.0
O22 O 0.18 0.0 0.94 . 8 f 1.0

