data_Nb2_O5_-_00-027-1313
#Copyright 2019 International Centre for Diffraction Data. All rights reserved.

_audit_creation_date                  2019-11-18
_audit_creation_method                'Generated by PDF-4+ 2020 4.20.0.1'

_chemical_name_systematic             'Niobium Oxide'
_chemical_formula_moiety              'Nb2 O5'
_chemical_formula_sum                 'Nb2 O5'
_chemical_formula_weight              265.81

_cell_length_a                        6.175(1)
_cell_length_b                        29.175(4)
_cell_length_c                        3.930(1)
_cell_angle_alpha                     90
_cell_angle_beta                      90
_cell_angle_gamma                     90
_cell_volume                          711.98
_cell_formula_units_Z                 8.40
_symmetry_cell_setting                orthorhombic
_symmetry_space_group_name_H-M        Pbam
_symmetry_Int_Tables_number           55

loop_
_symmetry_equiv_pos_site_id
_symmetry_equiv_pos_as_xyz
1 x,y,z
2 -x,-y,-z
3 -x,-y,z
4 x,y,-z
5 x+1/2,-y+1/2,-z
6 -x+1/2,y+1/2,z
7 -x+1/2,y+1/2,-z
8 x+1/2,-y+1/2,z

loop_
_atom_site_label
_atom_site_type_symbol
_atom_site_fract_x
_atom_site_fract_y
_atom_site_fract_z
_atom_site_B_iso_or_equiv
_atom_site_symmetry_multiplicity
_atom_site_Wyckoff_symbol
_atom_site_occupancy
Nb1 Nb 0.2807 0.03551 0.5445 1.70655 8 i 0.5
Nb2 Nb 0.1857 0.1537 0.5477 1.48049 8 i 0.5
Nb3 Nb 0.2522 0.27586 0.547 2.27108 8 i 0.5
Nb4 Nb 0.2376 0.40702 0.5543 1.75195 8 i 0.5
Nb5 Nb 0.054 0.3379 0.0 6.8 4 g 0.08
Nb6 Nb 0.434 0.4776 0.0 1.3 4 g 0.08
Nb7 Nb 0.435 0.213 0.0 . 4 g 0.04
O8 O 0.2823 0.03881 0.0 0.42 4 g 1.0
O9 O 0.19 0.15621 0.0 1.07 4 g 1.0
O10 O 0.2464 0.27816 0.0 1.82 4 g 1.0
O11 O 0.2626 0.41403 0.0 0.86 4 g 1.0
O12 O 0.0627 0.08789 0.5 1.24 4 h 1.0
O13 O 0.07 0.21991 0.5 0.79 4 h 1.0
O14 O 0.3423 0.34409 0.5 0.81 4 h 1.0
O15 O 0.1166 0.46876 0.5 1.25 4 h 1.0
O16 O 0.436 0.10596 0.5 0.72 4 h 1.0
O17 O 0.456 0.19642 0.5 2.47 4 h 1.0
O18 O 0.0 0.0 0.5 2.37 2 b 1.0

loop_
_atom_site_aniso_label
_atom_site_aniso_B_11
_atom_site_aniso_B_12
_atom_site_aniso_B_13
_atom_site_aniso_B_22
_atom_site_aniso_B_23
_atom_site_aniso_B_33
Nb1 3.23346 0.944011 0.0582423 1.12355 -0.0917258 0.762609
Nb2 0.945635 -0.540464 -0.0970706 1.05546 0.0 2.44035
Nb3 2.36409 -1.31873 0.203848 2.00878 -0.137589 2.44035
Nb4 0.793113 -0.144124 0.232969 1.25974 -0.137589 3.20296

