data_Nb12_O29_-_04-014-9204
#Copyright 2019 International Centre for Diffraction Data. All rights reserved.

_audit_creation_date                  2019-11-12
_audit_creation_method                'Generated by PDF-4+ 2020 4.20.0.1'

_chemical_name_systematic             'Niobium Oxide'
_chemical_formula_moiety              'Nb12 O29'
_chemical_formula_sum                 'Nb12 O29'
_chemical_formula_weight              1578.85

_cell_length_a                        3.8320(2)
_cell_length_b                        20.7400(9)
_cell_length_c                        28.8901(13)
_cell_angle_alpha                     90
_cell_angle_beta                      90
_cell_angle_gamma                     90
_cell_volume                          2296.06
_cell_formula_units_Z                 4.00
_symmetry_cell_setting                orthorhombic
_symmetry_space_group_name_H-M        Cmcm
_symmetry_Int_Tables_number           63

loop_
_symmetry_equiv_pos_site_id
_symmetry_equiv_pos_as_xyz
1 x,y,z
2 -x,-y,-z
3 x,-y,-z
4 -x,y,z
5 x,y,-z+1/2
6 -x,-y,z+1/2
7 x,-y,z+1/2
8 -x,y,-z+1/2
9 x+1/2,y+1/2,z
10 -x+1/2,-y+1/2,-z
11 x+1/2,-y+1/2,-z
12 -x+1/2,y+1/2,z
13 x+1/2,y+1/2,-z+1/2
14 -x+1/2,-y+1/2,z+1/2
15 x+1/2,-y+1/2,z+1/2
16 -x+1/2,y+1/2,-z+1/2

loop_
_atom_site_label
_atom_site_type_symbol
_atom_site_fract_x
_atom_site_fract_y
_atom_site_fract_z
_atom_site_U_iso_or_equiv
_atom_site_symmetry_multiplicity
_atom_site_Wyckoff_symbol
_atom_site_occupancy
Nb1 Nb 0.0 0.46238 0.54992 0.00657 8 f 1.0
Nb2 Nb 0.0 0.64757 0.54832 0.006 8 f 1.0
Nb3 Nb 0.0 0.83115 0.54939 0.00517 8 f 1.0
Nb4 Nb 0.0 0.8316 0.684 0.0042 8 f 1.0
Nb5 Nb 0.0 0.64779 0.6844 0.01693 8 f 1.0
Nb6 Nb 0.0 0.46416 0.6847 0.00613 8 f 1.0
O7 O 0.0 0.3562 0.5354 0.00567 8 f 1.0
O8 O 0.0 0.9385 0.5431 0.01033 8 f 1.0
O9 O 0.0 0.5491 0.5298 0.009 8 f 1.0
O10 O 0.0 0.4655 0.6115 0.00933 8 f 1.0
O11 O 0.0 0.1502 0.5284 0.00833 8 f 1.0
O12 O 0.0 0.7436 0.5414 0.01067 8 f 1.0
O13 O 0.0 0.6418 0.6091 0.011 8 f 1.0
O14 O 0.0 0.8373 0.6113 0.01033 8 f 1.0
O15 O 0.0 0.3576 0.6791 0.00633 8 f 1.0
O16 O 0.0 0.9403 0.6799 0.004 8 f 1.0
O17 O 0.0 0.8347 0.75 0.00367 4 c 1.0
O18 O 0.0 0.7434 0.6786 0.018 8 f 1.0
O19 O 0.0 0.1488 0.6758 0.01433 8 f 1.0
O20 O 0.0 0.6503 0.75 0.01033 4 c 1.0
O21 O 0.0 0.5512 0.6838 0.00933 8 f 1.0
O22 O 0.0 0.4568 0.75 0.014 4 c 1.0

loop_
_atom_site_aniso_label
_atom_site_aniso_U_11
_atom_site_aniso_U_12
_atom_site_aniso_U_13
_atom_site_aniso_U_22
_atom_site_aniso_U_23
_atom_site_aniso_U_33
Nb1 0.007 0.0 0.0 0.0066 2.0E-4 0.0061
Nb2 0.0067 0.0 0.0 0.0059 -2.0E-4 0.0054
Nb3 0.004 0.0 0.0 0.0057 7.0E-4 0.0058
Nb4 0.0019 0.0 0.0 0.0032 2.0E-4 0.0075
Nb5 0.0391 0.0 0.0 0.0056 6.0E-4 0.0061
Nb6 0.0067 0.0 0.0 0.0054 0.0 0.0063
O7 0.005 0.0 0.0 0.005 8.0E-4 0.007
O8 0.009 0.0 0.0 0.005 0.003 0.017
O9 0.007 0.0 0.0 0.009 0.0 0.011
O10 0.01 0.0 0.0 0.011 0.003 0.007
O11 0.008 0.0 0.0 0.011 0.001 0.006
O12 0.012 0.0 0.0 0.008 -0.001 0.012
O13 0.014 0.0 0.0 0.006 0.004 0.013
O14 0.011 0.0 0.0 0.012 0.001 0.008
O15 0.006 0.0 0.0 0.006 2.0E-4 0.007
O16 0.003 0.0 0.0 0.004 0.0011 0.005
O17 0.003 0.0 0.0 0.004 0.0 0.004
O18 0.019 0.0 0.0 0.017 2.0E-4 0.018
O19 0.013 0.0 0.0 0.015 -4.0E-4 0.015
O20 0.011 0.0 0.0 0.01 0.0 0.01
O21 0.007 0.0 0.0 0.008 0.0 0.013
O22 0.026 0.0 0.0 0.011 0.0 0.005

