data_Nb11_O27_-_04-014-9203
#Copyright 2019 International Centre for Diffraction Data. All rights reserved.

_audit_creation_date                  2019-11-12
_audit_creation_method                'Generated by PDF-4+ 2020 4.20.0.1'

_chemical_name_systematic             'Niobium Oxide'
_chemical_formula_moiety              'Nb11 O27'
_chemical_formula_sum                 'Nb11 O27'
_chemical_formula_weight              1453.94

_cell_length_a                        15.7491(2)
_cell_length_b                        3.8236(3)
_cell_length_c                        17.8521(2)
_cell_angle_alpha                     90.000(3)
_cell_angle_beta                      102.029(3)
_cell_angle_gamma                     90.000(3)
_cell_volume                          1051.42
_cell_formula_units_Z                 2.00
_symmetry_cell_setting                monoclinic
_symmetry_space_group_name_H-M        P2/m
_symmetry_Int_Tables_number           10

loop_
_symmetry_equiv_pos_site_id
_symmetry_equiv_pos_as_xyz
1 x,y,z
2 -x,-y,-z
3 x,-y,z
4 -x,y,-z

loop_
_atom_site_label
_atom_site_type_symbol
_atom_site_fract_x
_atom_site_fract_y
_atom_site_fract_z
_atom_site_U_iso_or_equiv
_atom_site_symmetry_multiplicity
_atom_site_Wyckoff_symbol
_atom_site_occupancy
Nb1 Nb 0.54947 0.0 0.42869 0.00959 2 m 1.0
Nb2 Nb 0.69313 0.0 0.63439 0.01069 2 m 1.0
Nb3 Nb 0.16133 0.0 0.16546 0.01197 2 m 1.0
Nb4 Nb 0.89929 0.0 0.54279 0.01984 2 m 1.0
Nb5 Nb 0.75733 0.0 0.34239 0.00975 2 m 1.0
Nb6 Nb 0.44538 0.5 0.28596 0.00956 2 n 1.0
Nb7 Nb 0.64906 0.5 0.19901 0.0099 2 n 1.0
Nb8 Nb 0.15002 0.5 0.8877 0.01051 2 n 1.0
Nb9 Nb 0.29726 0.5 0.08644 0.00985 2 n 1.0
Nb10 Nb 0.5 0.5 0.0 0.01867 1 e 1.0
Nb11 Nb 0.0 0.2198 0.0 0.01942 2 i 0.403
Nb12 Nb 0.0617 0.5 0.0294 0.01942 2 n 0.0677
Nb13 Nb 0.9807 0.0 0.045 0.01942 2 m 0.0295
O14 O 0.4452 0.0 0.3213 0.00981 2 m 1.0
O15 O 0.5209 0.5 0.4068 0.01045 2 n 1.0
O16 O 0.5848 0.0 0.5349 0.0141 2 m 1.0
O17 O 0.6463 0.0 0.392 0.01422 2 m 1.0
O18 O 0.6583 0.5 0.6444 0.01094 2 n 1.0
O19 O 0.754 0.0 0.7357 0.01411 2 m 1.0
O20 O 0.7778 0.0 0.5838 0.01684 2 m 1.0
O21 O 0.1869 0.5 0.1494 0.01406 2 n 1.0
O22 O 0.2749 0.0 0.1033 0.01525 2 m 1.0
O23 O 0.096 0.0 0.0566 0.01949 2 m 1.0
O24 O 0.0659 0.0 0.2043 0.01366 2 m 1.0
O25 O 0.0568 0.5 0.7749 0.01158 2 n 1.0
O26 O 0.1226 0.0 0.8649 0.01411 2 m 1.0
O27 O 0.1465 0.0 0.7073 0.01281 2 m 1.0
O28 O 0.9691 0.0 0.6513 0.0147 2 m 1.0
O29 O 0.8877 0.5 0.5502 0.01869 2 n 1.0
O30 O 1.0 0.0 0.5 0.01743 1 c 1.0
O31 O 0.8227 0.0 0.4388 0.01303 2 m 1.0
O32 O 0.7315 0.5 0.3189 0.0117 2 n 1.0
O33 O 0.6649 0.0 0.2288 0.01099 2 m 1.0
O34 O 0.9616 0.5 0.067 0.02279 2 n 1.0
O35 O 0.2155 0.5 0.987 0.0147 2 n 1.0
O36 O 0.2445 0.5 0.8402 0.01447 2 n 1.0
O37 O 0.3687 0.5 0.196 0.01332 2 n 1.0
O38 O 0.393 0.5 0.0461 0.01446 2 n 1.0
O39 O 0.546 0.5 0.2536 0.01255 2 n 1.0
O40 O 0.5773 0.5 0.1063 0.01199 2 n 1.0
O41 O 0.5 0.0 0.0 0.01885 1 d 1.0
Nb42 Nb 0.04207 0.0 0.74397 0.00949 2 m 1.0

loop_
_atom_site_aniso_label
_atom_site_aniso_U_11
_atom_site_aniso_U_12
_atom_site_aniso_U_13
_atom_site_aniso_U_22
_atom_site_aniso_U_23
_atom_site_aniso_U_33
Nb1 0.0111 0.0 0.0012 0.0089 0.0 0.0084
Nb2 0.0115 0.0 0.0023 0.0108 0.0 0.0098
Nb3 0.0128 0.0 0.0035 0.0116 0.0 0.0119
Nb4 0.0107 0.0 7.0E-4 0.0406 0.0 0.0077
Nb5 0.0113 0.0 3.0E-4 0.0089 0.0 0.0083
Nb6 0.0112 0.0 9.0E-4 0.0091 0.0 0.0079
Nb7 0.0119 0.0 -7.0E-4 0.0091 0.0 0.0075
Nb8 0.0121 0.0 7.0E-4 0.0101 0.0 0.0087
Nb9 0.0102 0.0 0.0019 0.01 0.0 0.0093
Nb10 0.0112 0.0 6.0E-4 0.0364 0.0 0.0078
Nb11 0.0094 0.0 0.001 0.0403 0.0 0.0082
Nb12 0.0094 0.0 0.001 0.0403 0.0 0.0082
Nb13 0.0094 0.0 0.001 0.0403 0.0 0.0082
O14 0.013 0.0 -0.001 0.006 0.0 0.009
O15 0.011 0.0 -0.001 0.01 0.0 0.009
O16 0.018 0.0 0.002 0.016 0.0 0.008
O17 0.016 0.0 0.004 0.012 0.0 0.015
O18 0.007 0.0 0.005 0.012 0.0 0.015
O19 0.017 0.0 0.0 0.012 0.0 0.012
O20 0.016 0.0 0.004 0.023 0.0 0.012
O21 0.017 0.0 0.01 0.011 0.0 0.017
O22 0.015 0.0 0.004 0.013 0.0 0.018
O23 0.025 0.0 0.003 0.019 0.0 0.014
O24 0.015 0.0 0.008 0.011 0.0 0.017
O25 0.011 0.0 -0.002 0.014 0.0 0.008
O26 0.015 0.0 -0.002 0.008 0.0 0.017
O27 0.012 0.0 0.004 0.013 0.0 0.014
O28 0.012 0.0 0.0 0.019 0.0 0.012
O29 0.017 0.0 0.004 0.016 0.0 0.023
O30 0.015 0.0 0.004 0.03 0.0 0.008
O31 0.013 0.0 0.0 0.014 0.0 0.011
O32 0.014 0.0 0.0 0.01 0.0 0.01
O33 0.014 0.0 -0.002 0.007 0.0 0.01
O34 0.016 0.0 0.005 0.035 0.0 0.018
O35 0.016 0.0 -0.002 0.015 0.0 0.011
O36 0.015 0.0 0.002 0.015 0.0 0.013
O37 0.015 0.0 0.003 0.012 0.0 0.013
O38 0.015 0.0 0.004 0.019 0.0 0.01
O39 0.014 0.0 0.006 0.011 0.0 0.014
O40 0.014 0.0 0.003 0.008 0.0 0.014
O41 0.018 0.0 0.003 0.015 0.0 0.023
Nb42 0.0109 0.0 9.0E-4 0.0091 0.0 0.008

