data_V_O2_-_01-086-6099
#Copyright 2019 International Centre for Diffraction Data. All rights reserved.

_audit_creation_date                  2019-11-12
_audit_creation_method                'Generated by PDF-4+ 2020 4.20.0.1'

_chemical_name_systematic             'Vanadium Oxide'
_chemical_formula_moiety              'V O2'
_chemical_formula_sum                 'O2 V'
_chemical_formula_weight              82.94

_cell_length_a                        7.37329(8)
_cell_length_b                        7.37329(8)
_cell_length_c                        4.52703(8)
_cell_angle_alpha                     90
_cell_angle_beta                      90
_cell_angle_gamma                     120
_cell_volume                          213.14
_cell_formula_units_Z                 7.00
_symmetry_cell_setting                hexagonal
_symmetry_space_group_name_H-M        P3
_symmetry_Int_Tables_number           143

loop_
_symmetry_equiv_pos_site_id
_symmetry_equiv_pos_as_xyz
1 x,y,z
2 -y,x-y,z
3 -x+y,-x,z

loop_
_atom_site_label
_atom_site_type_symbol
_atom_site_fract_x
_atom_site_fract_y
_atom_site_fract_z
_atom_site_U_iso_or_equiv
_atom_site_symmetry_multiplicity
_atom_site_Wyckoff_symbol
_atom_site_occupancy
V1 V 0.10354 0.40009 0.92355 0.00963 3 d 1.0
V2 V 0.39832 0.28944 0.42333 0.06028 3 d 1.0
O3 O 0.2059 0.01984 0.68267 0.025 3 d 1.0
O4 O 0.36853 0.4772 0.55384 0.025 3 d 1.0
O5 O 0.18076 0.24636 0.1235 0.025 3 d 1.0
O6 O 0.43256 0.0639 0.24891 0.025 3 d 1.0
O7 O 0.33333 0.66667 0.11886 0.025 1 b 1.0
O8 O 0.66667 0.33333 0.58611 0.025 1 c 1.0
V9 V 0.0 0.0 0.97272 0.025 1 a 1.0
V10 V 0.0 0.0 0.5 0.025 1 a 1.0E-4

