data_V6_O13_-_04-013-9634
#Copyright 2019 International Centre for Diffraction Data. All rights reserved.

_audit_creation_date                  2019-11-12
_audit_creation_method                'Generated by PDF-4+ 2020 4.20.0.1'

_chemical_name_systematic             'Vanadium Oxide'
_chemical_formula_moiety              'V6 O13'
_chemical_formula_sum                 'O13 V6'
_chemical_formula_weight              513.64

_cell_length_a                        10.0543(1)
_cell_length_b                        3.7080(1)
_cell_length_c                        11.9554(1)
_cell_angle_alpha                     90.000(1)
_cell_angle_beta                      100.914(1)
_cell_angle_gamma                     90.000(1)
_cell_volume                          437.65
_cell_formula_units_Z                 2.00
_symmetry_cell_setting                monoclinic
_symmetry_space_group_name_H-M        Pc
_symmetry_Int_Tables_number           7

loop_
_symmetry_equiv_pos_site_id
_symmetry_equiv_pos_as_xyz
1 x,y,z
2 x,-y,z+1/2

loop_
_atom_site_label
_atom_site_type_symbol
_atom_site_fract_x
_atom_site_fract_y
_atom_site_fract_z
_atom_site_U_iso_or_equiv
_atom_site_symmetry_multiplicity
_atom_site_Wyckoff_symbol
_atom_site_occupancy
V1 V 0.993888 0.2974 0.345635 0.00875 2 a 1.0
V2 V -0.003 0.2358 0.64163 0.00434 2 a 1.0
V3 V 0.3602 0.2503 0.41711 0.00272 2 a 1.0
V4 V 0.6322 0.2478 0.59099 0.00159 2 a 1.0
V5 V 0.3637 0.2489 0.71932 0.00248 2 a 1.0
V6 V 0.6306 0.2515 0.28868 0.00264 2 a 1.0
O7 O -0.0034 0.256 0.1835 0.00504 2 a 1.0
O8 O 0.3854 0.2497 0.8859 0.00384 2 a 1.0
O9 O 0.4068 0.252 0.254 0.004 2 a 1.0
O10 O -0.0032 0.24 0.5019 0.00563 2 a 1.0
O11 O 0.1923 0.252 0.3865 0.0051 2 a 1.0
O12 O 0.1965 0.2464 0.6818 0.00456 2 a 1.0
O13 O 0.4037 0.251 0.5647 0.004 2 a 1.0
O14 O -0.0041 0.2411 0.8289 0.0051 2 a 1.0
O15 O 0.6094 0.251 0.1219 0.00455 2 a 1.0
O16 O 0.5878 0.2489 0.752 0.00383 2 a 1.0
O17 O 0.7991 0.2469 0.6173 0.00488 2 a 1.0
O18 O 0.7987 0.254 0.3223 0.00518 2 a 1.0
O19 O 0.5886 0.251 0.4416 0.00497 2 a 1.0

loop_
_atom_site_aniso_label
_atom_site_aniso_U_11
_atom_site_aniso_U_12
_atom_site_aniso_U_13
_atom_site_aniso_U_22
_atom_site_aniso_U_23
_atom_site_aniso_U_33
V1 0.0035 0.00162 1.3E-4 0.0149 -0.0057 0.0075
V2 0.00295 -9.9E-4 3.3E-4 0.00396 -5.4E-4 0.0059
V3 0.0024 -7.0E-5 5.3E-4 0.00294 3.0E-4 0.00284
V4 0.00234 -1.3E-4 0.0065 0.003 3.5E-4 0.00182
V5 0.00203 -2.1E-4 5.0E-4 0.00222 1.0E-5 0.00318
V6 0.00253 1.0E-5 0.0 0.00262 -2.6E-4 0.00257
O7 0.004 -0.0015 2.0E-4 0.004 -0.0038 0.0068
O8 0.004 -5.0E-4 2.0E-4 0.0035 -4.0E-4 0.0038
O9 0.0038 -8.0E-4 3.0E-4 0.0032 0.0 0.0048
O10 0.0046 -0.0019 5.0E-4 0.0087 -9.0E-4 0.0035
O11 0.0025 0.0011 0.0019 0.0066 -6.0E-4 0.0066
O12 0.0035 -1.0E-4 0.0017 0.0049 5.0E-4 0.0056
O13 0.0031 -1.0E-4 0.0018 0.0042 -7.0E-4 0.0051
O14 0.0055 8.0E-4 7.0E-4 0.0055 7.0E-4 0.0042
O15 0.0067 0.0015 0.0019 0.0032 -6.0E-4 0.0041
O16 0.0045 0.003 8.0E-4 0.0036 2.0E-4 0.0034
O17 0.0037 -9.0E-4 -7.0E-4 0.0039 2.0E-4 0.0064
O18 0.0022 -3.0E-4 -2.0E-4 0.0057 -9.0E-4 0.0072
O19 0.0066 -6.0E-4 0.0013 0.0037 5.0E-4 0.0047

