data_Mn_Nb2_O6_-_01-075-2159
#Copyright 2019 International Centre for Diffraction Data. All rights reserved.

_audit_creation_date                  2019-11-12
_audit_creation_method                'Generated by PDF-4+ 2020 4.20.0.1'

_chemical_name_systematic             'Manganese Niobium Oxide'
_chemical_name_common                 'manganese diniobium oxide'
_chemical_formula_moiety              'Mn Nb2 O6'
_chemical_formula_sum                 'Mn Nb2 O6'
_chemical_formula_weight              336.74

_cell_length_a                        14.4204
_cell_length_b                        5.7566
_cell_length_c                        5.0784
_cell_angle_alpha                     90
_cell_angle_beta                      90
_cell_angle_gamma                     90
_cell_volume                          421.57
_cell_formula_units_Z                 4.00
_symmetry_cell_setting                orthorhombic
_symmetry_space_group_name_H-M        Pbcn
_symmetry_Int_Tables_number           60

loop_
_symmetry_equiv_pos_site_id
_symmetry_equiv_pos_as_xyz
1 x,y,z
2 -x,-y,-z
3 -x+1/2,-y+1/2,z+1/2
4 x+1/2,y+1/2,-z+1/2
5 x+1/2,-y+1/2,-z
6 -x+1/2,y+1/2,z
7 -x,y,-z+1/2
8 x,-y,z+1/2

loop_
_atom_site_label
_atom_site_type_symbol
_atom_site_fract_x
_atom_site_fract_y
_atom_site_fract_z
_atom_site_B_iso_or_equiv
_atom_site_symmetry_multiplicity
_atom_site_Wyckoff_symbol
_atom_site_occupancy
Mn1 Mn 0.0 0.3208 0.25 1.5 4 c 1.0
Nb2 Nb 0.3371 0.3185 0.2387 0.87 8 d 1.0
O3 O 0.1034 0.105 0.053 1.0 8 d 1.0
O4 O 0.4178 0.116 0.088 0.51 8 d 1.0
O5 O 0.762 0.12 0.086 0.75 8 d 1.0

