data_04-012-8670
#Copyright 2022 International Centre for Diffraction Data. All rights reserved.

_audit_creation_date                  2022-11-15
_audit_creation_method                'Generated by PDF-4+ 2022 4.22.0.2'

_chemical_name_systematic             'Copper Vanadium Oxide'
_chemical_formula_moiety              'Cu11 ( V O4 )6 O2'
_chemical_formula_sum                 'Cu11 O26 V6'
_chemical_formula_weight              1420.63

_cell_length_a                        8.1576(6)
_cell_length_b                        8.2691(5)
_cell_length_c                        8.0437(7)
_cell_angle_alpha                     107.144(5)
_cell_angle_beta                      91.389(7)
_cell_angle_gamma                     106.441(5)
_cell_formula_units_Z                 1
_cell_volume                          493.84
_symmetry_cell_setting                triclinic
_symmetry_space_group_name_H-M        P-1
_symmetry_Int_Tables_number           2

loop_
_symmetry_equiv_pos_site_id
_symmetry_equiv_pos_as_xyz
1 x,y,z
2 -x,-y,-z

loop_
_atom_site_label
_atom_site_type_symbol
_atom_site_fract_x
_atom_site_fract_y
_atom_site_fract_z
_atom_site_B_iso_or_equiv
_atom_site_symmetry_multiplicity
_atom_site_Wyckoff_symbol
_atom_site_occupancy
Cu1 Cu 0.0 0.0 0.0 0.56 1 a 1.0
Cu2 Cu 0.841 0.1455 0.7221 0.64 2 i 1.0
Cu3 Cu 0.7046 0.3372 0.5008 0.57 2 i 1.0
Cu4 Cu 0.5807 0.5078 0.2771 0.71 2 i 1.0
Cu5 Cu 0.7845 0.2522 0.1266 0.6 2 i 1.0
Cu6 Cu 0.3711 0.146 0.1485 1.12 2 i 1.0
V7 V 0.9025 0.7537 0.5675 0.41 2 i 1.0
V8 V 0.1871 0.4376 0.0781 0.38 2 i 1.0
V9 V 0.5887 0.9348 0.2667 0.39 2 i 1.0
O10 O 0.7055 0.5757 0.5131 0.64 2 i 1.0
O11 O 0.7876 0.4785 0.0891 0.7 2 i 1.0
O12 O 0.3628 0.37 0.1138 0.74 2 i 1.0
O13 O 0.8183 0.3911 0.7404 0.68 2 i 1.0
O14 O -3.0E-4 0.2491 0.02 0.57 2 i 1.0
O15 O 0.9502 0.3256 0.3768 0.82 2 i 1.0
O16 O 0.3804 0.9268 0.1814 0.61 2 i 1.0
O17 O 0.7287 -0.0093 0.115 0.65 2 i 1.0
O18 O 0.1243 0.073 0.2405 0.61 2 i 1.0
O19 O 0.4024 0.7224 0.7369 0.53 2 i 1.0
O20 O 0.3323 0.9133 0.5331 0.72 2 i 1.0
O21 O 0.4286 0.2645 0.7179 1.05 2 i 1.0
O22 O 0.9546 0.8185 0.3937 0.78 2 i 1.0

