data_04-012-3857
#Copyright 2022 International Centre for Diffraction Data. All rights reserved.

_audit_creation_date                  2022-11-15
_audit_creation_method                'Generated by PDF-4+ 2022 4.22.0.2'

_chemical_name_systematic             'Copper Vanadium Bismuth Oxide'
_chemical_formula_moiety              'Cu2 V Bi O6'
_chemical_formula_sum                 'Bi Cu2 O6 V'
_chemical_formula_weight              483.01

_cell_length_a                        13.471(1)
_cell_length_b                        7.812(1)
_cell_length_c                        15.760(1)
_cell_angle_alpha                     90
_cell_angle_beta                      113.10(1)
_cell_angle_gamma                     90
_cell_formula_units_Z                 12
_cell_volume                          1525.53
_symmetry_cell_setting                monoclinic
_symmetry_space_group_name_H-M        P21/n
_symmetry_Int_Tables_number           14

loop_
_symmetry_equiv_pos_site_id
_symmetry_equiv_pos_as_xyz
1 x,y,z
2 -x,-y,-z
3 x+1/2,-y+1/2,z+1/2
4 -x+1/2,y+1/2,-z+1/2

loop_
_atom_site_label
_atom_site_type_symbol
_atom_site_fract_x
_atom_site_fract_y
_atom_site_fract_z
_atom_site_U_iso_or_equiv
_atom_site_symmetry_multiplicity
_atom_site_Wyckoff_symbol
_atom_site_occupancy
Bi1 Bi 0.40756 0.0116 0.06077 0.0043 4 e 1.0
Bi2 Bi 0.62129 -0.0112 0.2872 0.0038 4 e 1.0
Bi3 Bi 0.41265 0.0111 0.38016 0.0036 4 e 1.0
Cu4 Cu 0.5878 0.3183 0.447 0.0073 4 e 1.0
Cu5 Cu 0.5762 -0.314 0.4443 0.0054 4 e 1.0
Cu6 Cu 0.4301 -0.2915 0.2326 0.0071 4 e 1.0
Cu7 Cu 0.4461 0.3041 0.2396 0.0078 4 e 1.0
Cu8 Cu 0.5765 -0.3171 0.101 0.0046 4 e 1.0
Cu9 Cu 0.5841 0.3221 0.1046 0.0057 4 e 1.0
V10 V 0.3081 0.4991 0.3466 0.0083 4 e 1.0
V11 V 0.6924 0.5197 0.3158 0.0056 4 e 1.0
V12 V 0.3103 -0.5214 0.0405 0.0082 4 e 1.0
O13 O 0.504 0.175 -0.002 0.003 4 e 1.0
O14 O 0.518 0.176 0.17 0.009 4 e 1.0
O15 O 0.513 -0.171 0.172 0.007 4 e 1.0
O16 O 0.522 -0.158 0.337 0.005 4 e 1.0
O17 O 0.534 0.163 0.347 0.007 4 e 1.0
O18 O 0.493 -0.17 0.497 0.011 4 e 1.0
O19 O 0.622 0.507 0.534 0.016 4 e 1.0
O20 O 0.35 0.323 0.306 0.013 4 e 1.0
O21 O 0.342 -0.329 0.301 0.024 4 e 1.0
O22 O 0.329 -0.012 0.185 0.01 4 e 1.0
O23 O 0.593 0.502 0.364 0.008 4 e 1.0
O24 O 0.751 0.21 0.155 0.008 4 e 1.0
O25 O 0.628 -0.498 0.196 0.011 4 e 1.0
O26 O 0.715 -0.125 0.147 0.006 4 e 1.0
O27 O 0.392 -0.501 0.16 0.006 4 e 1.0
O28 O 0.614 -0.495 0.029 0.007 4 e 1.0
O29 O 0.716 -0.131 0.511 0.027 4 e 1.0
O30 O 0.758 0.214 0.523 0.01 4 e 1.0

