data_04-019-7352
#Copyright 2022 International Centre for Diffraction Data. All rights reserved.

_audit_creation_date                  2022-11-15
_audit_creation_method                'Generated by PDF-4+ 2022 4.22.0.2'

_chemical_name_systematic             'Vanadium Oxide'
_chemical_formula_moiety              'V3 O5'
_chemical_formula_sum                 'O5 V3'
_chemical_formula_weight              232.82

_cell_length_a                        9.7187(4)
_cell_length_b                        9.9376(5)
_cell_length_c                        3.7002(2)
_cell_angle_alpha                     90
_cell_angle_beta                      90
_cell_angle_gamma                     90
_cell_formula_units_Z                 4
_cell_volume                          357.37
_symmetry_cell_setting                orthorhombic
_symmetry_space_group_name_H-M        Bbmm
_symmetry_Int_Tables_number           63

loop_
_symmetry_equiv_pos_site_id
_symmetry_equiv_pos_as_xyz
1 x,y,z
2 -x,-y,-z
3 -x,-y,z
4 x,y,-z
5 x,-y+1/2,z
6 -x,y+1/2,-z
7 -x,y+1/2,z
8 x,-y+1/2,-z
9 x+1/2,y,z+1/2
10 -x+1/2,-y,-z+1/2
11 -x+1/2,-y,z+1/2
12 x+1/2,y,-z+1/2
13 x+1/2,-y+1/2,z+1/2
14 -x+1/2,y+1/2,-z+1/2
15 -x+1/2,y+1/2,z+1/2
16 x+1/2,-y+1/2,-z+1/2

loop_
_atom_site_label
_atom_site_type_symbol
_atom_site_fract_x
_atom_site_fract_y
_atom_site_fract_z
_atom_site_B_iso_or_equiv
_atom_site_symmetry_multiplicity
_atom_site_Wyckoff_symbol
_atom_site_occupancy
V1 V 0.8108 0.25 0.0 0.12 4 c 1.0
V2 V 0.1343 0.4389 0.0 0.29 8 f 1.0
O3 O 0.238 0.25 0.0 0.7 4 c 1.0
O4 O 0.0477 0.8835 0.0 0.7 8 f 1.0
O5 O 0.3172 0.9293 0.0 0.7 8 f 1.0

