data_Nb_O2_-_01-082-1142
#Copyright 2019 International Centre for Diffraction Data. All rights reserved.

_audit_creation_date                  2019-11-12
_audit_creation_method                'Generated by PDF-4+ 2020 4.20.0.1'

_chemical_name_systematic             'Niobium Oxide'
_chemical_name_common                 'niobium(IV) oxide'
_chemical_formula_moiety              'Nb O2'
_chemical_formula_sum                 'Nb O2'
_chemical_formula_weight              124.90

_cell_length_a                        4.8463(1)
_cell_length_b                        4.8463(1)
_cell_length_c                        3.0315(1)
_cell_angle_alpha                     90
_cell_angle_beta                      90
_cell_angle_gamma                     90
_cell_volume                          71.20
_cell_formula_units_Z                 2.00
_symmetry_cell_setting                tetragonal
_symmetry_space_group_name_H-M        P42/mnm
_symmetry_Int_Tables_number           136

loop_
_symmetry_equiv_pos_site_id
_symmetry_equiv_pos_as_xyz
1 x,y,z
2 -x,-y,-z
3 -x,-y,z
4 x,y,-z
5 x+1/2,-y+1/2,z+1/2
6 -x+1/2,y+1/2,-z+1/2
7 -x+1/2,y+1/2,z+1/2
8 x+1/2,-y+1/2,-z+1/2
9 y,x,z
10 -y,-x,-z
11 -y,-x,z
12 y,x,-z
13 y+1/2,-x+1/2,z+1/2
14 -y+1/2,x+1/2,-z+1/2
15 -y+1/2,x+1/2,z+1/2
16 y+1/2,-x+1/2,-z+1/2

loop_
_atom_site_label
_atom_site_type_symbol
_atom_site_fract_x
_atom_site_fract_y
_atom_site_fract_z
_atom_site_U_iso_or_equiv
_atom_site_symmetry_multiplicity
_atom_site_Wyckoff_symbol
_atom_site_occupancy
Nb1 Nb 0.0 0.0 0.0 0.02607 2 a 1.0
O2 O 0.2924 0.2924 0.0 0.02947 4 f 1.0

loop_
_atom_site_aniso_label
_atom_site_aniso_U_11
_atom_site_aniso_U_12
_atom_site_aniso_U_13
_atom_site_aniso_U_22
_atom_site_aniso_U_23
_atom_site_aniso_U_33
Nb1 0.0221 8.0E-4 0.0 0.0221 0.0 0.034
O2 0.0309 -0.0097 0.0 0.0309 0.0 0.0266

