data_Mn1.5_V_O4_-_00-065-0326
#Copyright 2019 International Centre for Diffraction Data. All rights reserved.

_audit_creation_date                  2019-11-12
_audit_creation_method                'Generated by PDF-4+ 2020 4.20.0.1'

_chemical_name_systematic             'Manganese Vanadium Oxide'
_chemical_formula_moiety              'Mn1.5 V O4'
_chemical_formula_sum                 'Mn1.5 O4 V'
_chemical_formula_weight              197.35

_cell_length_a                        6.259529(47)
_cell_length_b                        11.72540(10)
_cell_length_c                        8.493747(61)
_cell_angle_alpha                     90.0
_cell_angle_beta                      90.0
_cell_angle_gamma                     90.0
_cell_volume                          623.40
_cell_formula_units_Z                 8.00
_symmetry_cell_setting                orthorhombic
_symmetry_space_group_name_H-M        Cmca
_symmetry_Int_Tables_number           64

loop_
_symmetry_equiv_pos_site_id
_symmetry_equiv_pos_as_xyz
1 x,y,z
2 -x,-y,-z
3 x,-y,-z
4 -x,y,z
5 x,-y+1/2,z+1/2
6 -x,y+1/2,-z+1/2
7 x,y+1/2,-z+1/2
8 -x,-y+1/2,z+1/2
9 x+1/2,y+1/2,z
10 -x+1/2,-y+1/2,-z
11 x+1/2,-y+1/2,-z
12 -x+1/2,y+1/2,z
13 x+1/2,-y,z+1/2
14 -x+1/2,y,-z+1/2
15 x+1/2,y,-z+1/2
16 -x+1/2,-y,z+1/2

loop_
_atom_site_label
_atom_site_type_symbol
_atom_site_fract_x
_atom_site_fract_y
_atom_site_fract_z
_atom_site_B_iso_or_equiv
_atom_site_symmetry_multiplicity
_atom_site_Wyckoff_symbol
_atom_site_occupancy
Mn1 Mn 0.0 0.0 0.0 0.84 . . 1.0
Mn2 Mn 0.25 0.137604 0.25 0.84 . . 1.0
V3 V 0.0 0.379515 0.12167 0.131 . . 1.0
O4 O 0.0 0.2565 0.22338 0.732 . . 1.0
O5 O 0.0 0.99968 0.24955 0.732 . . 1.0
O6 O 0.2802 0.11737 0.99269 0.732 . . 1.0

