data_04-007-8855
#Copyright 2021 International Centre for Diffraction Data. All rights reserved.

_audit_creation_date                  2021-12-16
_audit_creation_method                'Generated by PDF-4+ 2022 4.22.0.2'

_chemical_name_systematic             'Vanadium Iron Oxide'
_chemical_formula_moiety              'V3 Fe2 O8'
_chemical_formula_sum                 'Fe2 O8 V3'
_chemical_formula_weight              392.51

_cell_length_a                        5.85
_cell_length_b                        5.85
_cell_length_c                        9.29
_cell_angle_alpha                     90
_cell_angle_beta                      90
_cell_angle_gamma                     120
_cell_formula_units_Z                 2
_cell_volume                          275.33
_symmetry_cell_setting                hexagonal
_symmetry_space_group_name_H-M        P63mc
_symmetry_Int_Tables_number           186

loop_
_symmetry_equiv_pos_site_id
_symmetry_equiv_pos_as_xyz
1 x,y,z
2 -y,x-y,z
3 -x+y,-x,z
4 -y,-x,z
5 x,x-y,z
6 -x+y,y,z
7 -x,-y,z+1/2
8 y,-x+y,z+1/2
9 x-y,x,z+1/2
10 y,x,z+1/2
11 -x,-x+y,z+1/2
12 x-y,-y,z+1/2

loop_
_atom_site_label
_atom_site_type_symbol
_atom_site_fract_x
_atom_site_fract_y
_atom_site_fract_z
_atom_site_U_iso_or_equiv
_atom_site_symmetry_multiplicity
_atom_site_Wyckoff_symbol
_atom_site_occupancy
V1 V 0.1461 0.8539 0.3614 . 6 c 1.0
O2 O 0.4861 0.5139 0.4753 . 6 c 1.0
O3 O 0.8353 0.1647 0.2468 . 6 c 1.0
Fe4 Fe 0.33333 0.66666 0.0579 . 2 b 1.0
O5 O 0.33333 0.66666 0.2584 . 2 b 1.0
Fe6 Fe 0.33333 0.66666 0.6246 . 2 b 1.0
O7 O 0.0 0.0 0.0 . 2 a 1.0

