data_04-008-0733
#Copyright 2021 International Centre for Diffraction Data. All rights reserved.

_audit_creation_date                  2021-12-16
_audit_creation_method                'Generated by PDF-4+ 2022 4.22.0.2'

_chemical_name_systematic             'Vanadium Oxide'
_chemical_formula_moiety              'V6 O11'
_chemical_formula_sum                 'O11 V6'
_chemical_formula_weight              481.64

_cell_length_a                        5.448
_cell_length_b                        6.998
_cell_length_c                        9.569
_cell_angle_alpha                     90.0
_cell_angle_beta                      79.4
_cell_angle_gamma                     71.1
_cell_formula_units_Z                 2
_cell_volume                          338.56
_symmetry_cell_setting                triclinic
_symmetry_space_group_name_H-M        P-1
_symmetry_Int_Tables_number           2

loop_
_symmetry_equiv_pos_site_id
_symmetry_equiv_pos_as_xyz
1 x,y,z
2 -x,-y,-z

loop_
_atom_site_label
_atom_site_type_symbol
_atom_site_fract_x
_atom_site_fract_y
_atom_site_fract_z
_atom_site_U_iso_or_equiv
_atom_site_symmetry_multiplicity
_atom_site_Wyckoff_symbol
_atom_site_occupancy
O1 O 0.0269 0.17072 0.06668 . 2 i 1.0
O2 O 0.06195 0.35951 0.29854 . 2 i 1.0
O3 O 0.0968 0.69902 0.42348 . 2 i 1.0
O4 O 0.1585 0.26436 0.78284 . 2 i 1.0
V5 V 0.18784 0.57013 0.24408 . 2 i 1.0
V6 V 0.19198 0.07145 0.24032 . 2 i 1.0
V7 V 0.26942 0.64134 0.58608 . 2 i 1.0
V8 V 0.27361 0.13816 0.58378 . 2 i 1.0
O9 O 0.28695 0.45909 0.03446 . 2 i 1.0
O10 O 0.3126 0.79584 0.14416 . 2 i 1.0
V11 V 0.324 0.19508 0.93346 . 2 i 1.0
O12 O 0.37605 0.01703 0.39102 . 2 i 1.0
O13 O 0.40245 0.36027 0.52558 . 2 i 1.0
O14 O 0.51365 0.09631 0.10754 . 2 i 1.0
O15 O 0.555 0.42612 0.24308 . 2 i 1.0
V16 V 0.68485 0.30273 0.06176 . 2 i 1.0
O17 O 0.85905 0.07977 0.34858 . 2 i 1.0

