data_04-007-5242
#Copyright 2021 International Centre for Diffraction Data. All rights reserved.

_audit_creation_date                  2021-12-16
_audit_creation_method                'Generated by PDF-4+ 2022 4.22.0.2'

_chemical_name_systematic             'Vanadium Iron Oxide'
_chemical_formula_moiety              'V0.5 Fe0.5 O2'
_chemical_formula_sum                 'Fe0.5 O2 V0.5'
_chemical_formula_weight              85.39

_cell_length_a                        4.9
_cell_length_b                        5.53
_cell_length_c                        4.491
_cell_angle_alpha                     90
_cell_angle_beta                      90
_cell_angle_gamma                     90
_cell_formula_units_Z                 4
_cell_volume                          121.69
_symmetry_cell_setting                orthorhombic
_symmetry_space_group_name_H-M        Pbcn
_symmetry_Int_Tables_number           60

loop_
_symmetry_equiv_pos_site_id
_symmetry_equiv_pos_as_xyz
1 x,y,z
2 -x,-y,-z
3 -x+1/2,-y+1/2,z+1/2
4 x+1/2,y+1/2,-z+1/2
5 x+1/2,-y+1/2,-z
6 -x+1/2,y+1/2,z
7 -x,y,-z+1/2
8 x,-y,z+1/2

loop_
_atom_site_label
_atom_site_type_symbol
_atom_site_fract_x
_atom_site_fract_y
_atom_site_fract_z
_atom_site_U_iso_or_equiv
_atom_site_symmetry_multiplicity
_atom_site_Wyckoff_symbol
_atom_site_occupancy
O1 O 0.25 0.36 0.125 . 8 d 1.0
Fe2 Fe 0.0 0.11 0.25 . 4 c 0.5
V3 V 0.0 0.11 0.25 . 4 c 0.5

