data_04-008-9659
#Copyright 2021 International Centre for Diffraction Data. All rights reserved.

_audit_creation_date                  2021-12-16
_audit_creation_method                'Generated by PDF-4+ 2022 4.22.0.2'

_chemical_name_systematic             'Copper Vanadium Oxide'
_chemical_name_common                 '\a-Cu V2 O6'
_chemical_formula_moiety              'Cu V2 O6'
_chemical_formula_sum                 'Cu O6 V2'
_chemical_formula_weight              261.42

_cell_length_a                        3.555
_cell_length_b                        4.8657
_cell_length_c                        6.485
_cell_angle_alpha                     70.035
_cell_angle_beta                      87.72
_cell_angle_gamma                     70.364
_cell_formula_units_Z                 1
_cell_volume                          98.95
_symmetry_cell_setting                triclinic
_symmetry_space_group_name_H-M        P-1
_symmetry_Int_Tables_number           2

loop_
_symmetry_equiv_pos_site_id
_symmetry_equiv_pos_as_xyz
1 x,y,z
2 -x,-y,-z

loop_
_atom_site_label
_atom_site_type_symbol
_atom_site_fract_x
_atom_site_fract_y
_atom_site_fract_z
_atom_site_U_iso_or_equiv
_atom_site_symmetry_multiplicity
_atom_site_Wyckoff_symbol
_atom_site_occupancy
O1 O 0.0277 0.4392 0.2239 . 2 i 1.0
V2 V 0.18012 0.11442 0.15463 . 2 i 1.0
O3 O 0.2944 0.8148 0.3896 . 2 i 1.0
O4 O 0.6905 0.1134 0.0684 . 2 i 1.0
Cu5 Cu 0.0 0.5 0.5 . 1 g 1.0

