data_04-021-5237
#Copyright 2021 International Centre for Diffraction Data. All rights reserved.

_audit_creation_date                  2021-12-16
_audit_creation_method                'Generated by PDF-4+ 2022 4.22.0.2'

_chemical_name_systematic             'Vanadium Oxide'
_chemical_formula_moiety              'V2 O3'
_chemical_formula_sum                 'O3 V2'
_chemical_formula_weight              149.88

_cell_length_a                        6.9624(2)
_cell_length_b                        4.8719(4)
_cell_length_c                        5.3984(2)
_cell_angle_alpha                     90
_cell_angle_beta                      98.94(2)
_cell_angle_gamma                     90
_cell_formula_units_Z                 4
_cell_volume                          180.89
_symmetry_cell_setting                monoclinic
_symmetry_space_group_name_H-M        P21/c
_symmetry_Int_Tables_number           14

loop_
_symmetry_equiv_pos_site_id
_symmetry_equiv_pos_as_xyz
1 x,y,z
2 -x,-y,-z
3 -x,y+1/2,-z+1/2
4 x,-y+1/2,z+1/2

loop_
_atom_site_label
_atom_site_type_symbol
_atom_site_fract_x
_atom_site_fract_y
_atom_site_fract_z
_atom_site_U_iso_or_equiv
_atom_site_symmetry_multiplicity
_atom_site_Wyckoff_symbol
_atom_site_occupancy
V1 V 0.3455 -0.008 0.3007 . 4 e 1.0
V2 V 0.1514 -2.0E-4 0.7018 . 4 e 1.0
O3 O 0.4048 0.8385 0.6482 . 4 e 1.0
O4 O 0.0944 0.8371 0.3547 . 4 e 1.0
O5 O 0.2506 0.3042 0.5016 . 4 e 1.0

