data_04-009-7668
#Copyright 2021 International Centre for Diffraction Data. All rights reserved.

_audit_creation_date                  2021-12-16
_audit_creation_method                'Generated by PDF-4+ 2022 4.22.0.2'

_chemical_name_systematic             'Vanadium Iron Oxide'
_chemical_name_common                 'iron divanadate'
_chemical_formula_moiety              'V2 Fe0.33 O5'
_chemical_formula_sum                 'Fe0.33 O5 V2'
_chemical_formula_weight              200.31

_cell_length_a                        15.307(8)
_cell_length_b                        3.624(2)
_cell_length_c                        10.123(5)
_cell_angle_alpha                     90
_cell_angle_beta                      107.30(3)
_cell_angle_gamma                     90
_cell_formula_units_Z                 6
_cell_volume                          536.14
_symmetry_cell_setting                monoclinic
_symmetry_space_group_name_H-M        C2/m
_symmetry_Int_Tables_number           12

loop_
_symmetry_equiv_pos_site_id
_symmetry_equiv_pos_as_xyz
1 x,y,z
2 -x,-y,-z
3 x,-y,z
4 -x,y,-z
5 x+1/2,y+1/2,z
6 -x+1/2,-y+1/2,-z
7 x+1/2,-y+1/2,z
8 -x+1/2,y+1/2,-z

loop_
_atom_site_label
_atom_site_type_symbol
_atom_site_fract_x
_atom_site_fract_y
_atom_site_fract_z
_atom_site_U_iso_or_equiv
_atom_site_symmetry_multiplicity
_atom_site_Wyckoff_symbol
_atom_site_occupancy
V1 V 0.2868 0.0 0.4068 0.01028 4 i 1.0
V2 V 0.1142 0.0 0.12 0.00938 4 i 1.0
V3 V 0.3349 0.0 0.0961 0.00747 4 i 1.0
O4 O 0.0 0.0 0.0 0.01372 2 a 1.0
O5 O 0.2609 0.0 0.2221 0.00925 4 i 1.0
O6 O 0.3673 0.0 0.918 0.0093 4 i 1.0
O7 O 0.1003 0.0 0.2724 0.01761 4 i 1.0
O8 O 0.2446 0.0 0.5751 0.01449 4 i 1.0
O9 O 0.1863 0.0 0.9497 0.0094 4 i 1.0
O10 O 0.3957 0.0 0.4616 0.02471 4 i 1.0
O11 O 0.4342 0.0 0.2074 0.01454 4 i 1.0
Fe12 Fe 0.4605 0.0 0.6486 0.03446 4 i 0.25
Fe13 Fe 0.4776 0.121 0.6323 0.03446 8 j 0.125

loop_
_atom_site_aniso_label
_atom_site_aniso_U_11
_atom_site_aniso_U_12
_atom_site_aniso_U_13
_atom_site_aniso_U_22
_atom_site_aniso_U_23
_atom_site_aniso_U_33
V1 0.0174 0.0 0.005 0.0068 0.0 0.0075
V2 0.0138 0.0 0.0067 0.0052 0.0 0.0111
V3 0.009 0.0 0.0032 0.0053 0.0 0.0085
O4 0.0082 0.0 0.0023 0.0093 0.0 0.0222
O5 0.0091 0.0 0.0041 0.0119 0.0 0.0078
O6 0.0117 0.0 0.0044 0.0061 0.0 0.0108
O7 0.017 0.0 0.0051 0.0216 0.0 0.0145
O8 0.0332 0.0 0.0119 0.0045 0.0 0.0094
O9 0.0135 0.0 0.0062 0.0047 0.0 0.0116
O10 0.0215 0.0 0.0 0.0355 0.0 0.0137
O11 0.0134 0.0 4.0E-4 0.0159 0.0 0.0121
Fe12 0.0256 0.0 -0.0117 0.0444 0.0 0.0212
Fe13 0.0256 0.0 -0.0117 0.0444 0.0 0.0212

