data_04-013-7126
#Copyright 2021 International Centre for Diffraction Data. All rights reserved.

_audit_creation_date                  2021-12-16
_audit_creation_method                'Generated by PDF-4+ 2022 4.22.0.2'

_chemical_name_systematic             'Copper Iron Oxide'
_chemical_formula_moiety              'Cu Fe O2'
_chemical_formula_sum                 'Cu Fe O2'
_chemical_formula_weight              151.39

_cell_length_a                        11.5739(2)
_cell_length_b                        3.03979(2)
_cell_length_c                        5.98156(8)
_cell_angle_alpha                     90
_cell_angle_beta                      154.341(1)
_cell_angle_gamma                     90
_cell_formula_units_Z                 2
_cell_volume                          91.13
_symmetry_cell_setting                monoclinic
_symmetry_space_group_name_H-M        C2/m
_symmetry_Int_Tables_number           12

loop_
_symmetry_equiv_pos_site_id
_symmetry_equiv_pos_as_xyz
1 x,y,z
2 -x,-y,-z
3 x,-y,z
4 -x,y,-z
5 x+1/2,y+1/2,z
6 -x+1/2,-y+1/2,-z
7 x+1/2,-y+1/2,z
8 -x+1/2,y+1/2,-z

loop_
_atom_site_label
_atom_site_type_symbol
_atom_site_fract_x
_atom_site_fract_y
_atom_site_fract_z
_atom_site_B_iso_or_equiv
_atom_site_symmetry_multiplicity
_atom_site_Wyckoff_symbol
_atom_site_occupancy
Cu1 Cu 0.0 0.5 0.5 0.25 2 d 1.0
Fe2 Fe 0.0 0.0 0.0 0.24 2 a 1.0
O3 O 0.8938 0.5 0.609 . 4 i 1.0

