data_01-071-0289
#Copyright 2021 International Centre for Diffraction Data. All rights reserved.

_audit_creation_date                  2021-12-16
_audit_creation_method                'Generated by PDF-4+ 2022 4.22.0.2'

_chemical_name_systematic             'Vanadium Oxide'
_chemical_name_common                 'vanadium(IV) oxide - Al-doped'
_chemical_formula_moiety              'V O2'
_chemical_formula_sum                 'O2 V'
_chemical_formula_weight              82.94

_cell_length_a                        9.065
_cell_length_b                        5.7492(1)
_cell_length_c                        4.5212(1)
_cell_angle_alpha                     90.00(1)
_cell_angle_beta                      91.06(1)
_cell_angle_gamma                     89.78(1)
_cell_formula_units_Z                 4
_cell_volume                          235.59
_symmetry_cell_setting                triclinic
_symmetry_space_group_name_H-M        P-1
_symmetry_Int_Tables_number           2

loop_
_symmetry_equiv_pos_site_id
_symmetry_equiv_pos_as_xyz
1 x,y,z
2 -x,-y,-z

loop_
_atom_site_label
_atom_site_type_symbol
_atom_site_fract_x
_atom_site_fract_y
_atom_site_fract_z
_atom_site_U_iso_or_equiv
_atom_site_symmetry_multiplicity
_atom_site_Wyckoff_symbol
_atom_site_occupancy
V1 V -0.00681 0.72175 -0.01012 0.00669 2 i 1.0
V2 V 0.23329 -0.01343 0.52519 0.00647 2 i 1.0
O3 O 0.1511 0.2516 0.3072 0.0073 2 i 1.0
O4 O 0.3964 6.0E-4 0.2135 0.006 2 i 1.0
O5 O 0.1 0.0 0.7981 0.0064 2 i 1.0
O6 O 0.1461 0.757 0.2974 0.0079 2 i 1.0

loop_
_atom_site_aniso_label
_atom_site_aniso_U_11
_atom_site_aniso_U_12
_atom_site_aniso_U_13
_atom_site_aniso_U_22
_atom_site_aniso_U_23
_atom_site_aniso_U_33
V1 0.0079 6.0E-4 8.0E-4 0.0069 -0.0021 0.0053
V2 0.0041 -9.0E-4 -4.0E-4 0.0113 0.0022 0.004

