data_04-018-6919
#Copyright 2021 International Centre for Diffraction Data. All rights reserved.

_audit_creation_date                  2021-12-15
_audit_creation_method                'Generated by PDF-4+ 2022 4.22.0.2'

_chemical_name_systematic             'Copper Iron Oxide'
_chemical_formula_moiety              'Cu0.85 Fe0.10 O'
_chemical_formula_sum                 'Cu0.85 Fe0.1 O'
_chemical_formula_weight              75.60

_cell_length_a                        4.686
_cell_length_b                        3.425
_cell_length_c                        5.132
_cell_angle_alpha                     90
_cell_angle_beta                      99.42
_cell_angle_gamma                     90
_cell_formula_units_Z                 4
_cell_volume                          81.26
_symmetry_cell_setting                monoclinic
_symmetry_space_group_name_H-M        C2/c
_symmetry_Int_Tables_number           15

loop_
_symmetry_equiv_pos_site_id
_symmetry_equiv_pos_as_xyz
1 x,y,z
2 -x,-y,-z
3 -x,y,-z+1/2
4 x,-y,z+1/2
5 x+1/2,y+1/2,z
6 -x+1/2,-y+1/2,-z
7 -x+1/2,y+1/2,-z+1/2
8 x+1/2,-y+1/2,z+1/2

loop_
_atom_site_label
_atom_site_type_symbol
_atom_site_fract_x
_atom_site_fract_y
_atom_site_fract_z
_atom_site_U_iso_or_equiv
_atom_site_symmetry_multiplicity
_atom_site_Wyckoff_symbol
_atom_site_occupancy
Cu1 Cu 0.25 0.25 0.0 . 4 c 0.847757
Fe2 Fe 0.25 0.25 0.0 . 4 c 0.095243
O3 O 0.0 0.433 0.25 . 4 e 1.0

