data_04-016-5687
#Copyright 2021 International Centre for Diffraction Data. All rights reserved.

_audit_creation_date                  2021-12-16
_audit_creation_method                'Generated by PDF-4+ 2022 4.22.0.2'

_chemical_name_systematic             'Iron Oxide'
_chemical_formula_moiety              'Fe3 O4'
_chemical_formula_sum                 'Fe3 O4'
_chemical_formula_weight              231.53

_cell_length_a                        5.944408(14)
_cell_length_b                        5.924701(17)
_cell_length_c                        16.77515(14)
_cell_angle_alpha                     90
_cell_angle_beta                      90.2363(2)
_cell_angle_gamma                     90
_cell_formula_units_Z                 8
_cell_volume                          590.80
_symmetry_cell_setting                monoclinic
_symmetry_space_group_name_H-M        P2/c
_symmetry_Int_Tables_number           13

loop_
_symmetry_equiv_pos_site_id
_symmetry_equiv_pos_as_xyz
1 x,y,z
2 -x,-y,-z
3 -x,y,-z+1/2
4 x,-y,z+1/2

loop_
_atom_site_label
_atom_site_type_symbol
_atom_site_fract_x
_atom_site_fract_y
_atom_site_fract_z
_atom_site_U_iso_or_equiv
_atom_site_symmetry_multiplicity
_atom_site_Wyckoff_symbol
_atom_site_occupancy
Fe1 Fe 0.25 0.0034 0.06366 . 4 g 1.0
Fe2 Fe 0.25 0.5061 0.18867 . 4 g 1.0
Fe3 Fe 0.0 0.5 0.0 . 2 c 1.0
Fe4 Fe 0.5 0.5 0.0 . 2 b 1.0
Fe5 Fe 0.0 0.0096 0.25 . 2 e 1.0
Fe6 Fe 0.5 0.0096 0.25 . 2 f 1.0
Fe7 Fe 0.25 0.2659 0.3801 . 4 g 1.0
Fe8 Fe 0.25 0.752 0.37659 . 4 g 1.0
O9 O 0.25 0.2637 -0.0023 . 4 g 1.0
O10 O 0.25 0.7461 -0.0029 . 4 g 1.0
O11 O 0.25 0.2447 0.2542 . 4 g 1.0
O12 O 0.25 0.7738 0.2525 . 4 g 1.0
O13 O -0.0091 0.0095 0.1277 . 4 g 1.0
O14 O 0.4909 0.0095 0.3723 . 4 g 1.0
O15 O -0.0081 0.5046 0.1246 . 4 g 1.0
O16 O 0.4919 0.5046 0.3754 . 4 g 1.0

