data_04-019-9516
#Copyright 2021 International Centre for Diffraction Data. All rights reserved.

_audit_creation_date                  2021-12-16
_audit_creation_method                'Generated by PDF-4+ 2022 4.22.0.2'

_chemical_name_systematic             'Iron Oxide'
_chemical_formula_moiety              'Fe2 O3'
_chemical_formula_sum                 'Fe2 O3'
_chemical_formula_weight              159.69

_cell_length_a                        4.588(3)
_cell_length_b                        4.945(2)
_cell_length_c                        6.679(7)
_cell_angle_alpha                     90
_cell_angle_beta                      91.31(9)
_cell_angle_gamma                     90
_cell_formula_units_Z                 4
_cell_volume                          151.49
_symmetry_cell_setting                monoclinic
_symmetry_space_group_name_H-M        P21/n
_symmetry_Int_Tables_number           14

loop_
_symmetry_equiv_pos_site_id
_symmetry_equiv_pos_as_xyz
1 x,y,z
2 -x,-y,-z
3 x+1/2,-y+1/2,z+1/2
4 -x+1/2,y+1/2,-z+1/2

loop_
_atom_site_label
_atom_site_type_symbol
_atom_site_fract_x
_atom_site_fract_y
_atom_site_fract_z
_atom_site_U_iso_or_equiv
_atom_site_symmetry_multiplicity
_atom_site_Wyckoff_symbol
_atom_site_occupancy
Fe1 Fe 0.0 0.0 0.0 0.027 2 a 1.0
Fe2 Fe 0.0 0.0 0.5 0.03 2 b 1.0
Fe3 Fe 0.5282 0.0828 0.7505 0.03 4 e 1.0
O4 O 0.338 0.185 0.072 0.023 4 e 1.0
O5 O 0.325 0.181 0.43 0.036 4 e 1.0
O6 O 0.852 0.063 0.262 0.03 4 e 1.0

