data_04-007-1361
#Copyright 2021 International Centre for Diffraction Data. All rights reserved.

_audit_creation_date                  2021-12-16
_audit_creation_method                'Generated by PDF-4+ 2022 4.22.0.2'

_chemical_name_systematic             'Vanadium Oxide'
_chemical_formula_moiety              'V6 O13'
_chemical_formula_sum                 'O13 V6'
_chemical_formula_weight              513.64

_cell_length_a                        11.96(1)
_cell_length_b                        3.713(3)
_cell_length_c                        10.07(2)
_cell_angle_alpha                     90
_cell_angle_beta                      100.9(2)
_cell_angle_gamma                     90
_cell_formula_units_Z                 2
_cell_volume                          439.12
_symmetry_cell_setting                monoclinic
_symmetry_space_group_name_H-M        P21/a
_symmetry_Int_Tables_number           14

loop_
_symmetry_equiv_pos_site_id
_symmetry_equiv_pos_as_xyz
1 x,y,z
2 -x,-y,-z
3 -x+1/2,y+1/2,-z
4 x+1/2,-y+1/2,z

loop_
_atom_site_label
_atom_site_type_symbol
_atom_site_fract_x
_atom_site_fract_y
_atom_site_fract_z
_atom_site_U_iso_or_equiv
_atom_site_symmetry_multiplicity
_atom_site_Wyckoff_symbol
_atom_site_occupancy
V1 V 0.35201 0.03851 -0.00144 . 4 e 1.0
V2 V 0.41302 0.00155 0.36403 . 4 e 1.0
V3 V 0.71537 -0.00113 0.36664 . 4 e 1.0
O4 O 0.1775 0.0076 3.0E-4 . 4 e 1.0
O5 O 0.8818 -0.0018 0.3885 . 4 e 1.0
O6 O 0.251 0.0012 0.4092 . 4 e 1.0
O7 O 0.5 0.0 0.0 . 2 c 1.0
O8 O 0.3845 0.0032 0.1966 . 4 e 1.0
O9 O 0.6799 -0.0035 0.1994 . 4 e 1.0
O10 O 0.5616 4.0E-4 0.4071 . 4 e 1.0

