data_03-065-5488
#Copyright 2021 International Centre for Diffraction Data. All rights reserved.

_audit_creation_date                  2021-12-16
_audit_creation_method                'Generated by PDF-4+ 2022 4.22.0.2'

_chemical_name_systematic             'Vanadium Oxide'
_chemical_formula_moiety              'O3 V7'
_chemical_formula_sum                 'O3 V7'
_chemical_formula_weight              404.59

_cell_length_a                        9.507
_cell_length_b                        2.935
_cell_length_c                        7.695
_cell_angle_alpha                     90.0
_cell_angle_beta                      90.84
_cell_angle_gamma                     90.0
_cell_formula_units_Z                 2
_cell_volume                          214.69
_symmetry_cell_setting                monoclinic
_symmetry_space_group_name_H-M        C2/m
_symmetry_Int_Tables_number           12

loop_
_symmetry_equiv_pos_site_id
_symmetry_equiv_pos_as_xyz
1 x,y,z
2 -x,-y,-z
3 x,-y,z
4 -x,y,-z
5 x+1/2,y+1/2,z
6 -x+1/2,-y+1/2,-z
7 x+1/2,-y+1/2,z
8 -x+1/2,y+1/2,-z

loop_
_atom_site_label
_atom_site_type_symbol
_atom_site_fract_x
_atom_site_fract_y
_atom_site_fract_z
_atom_site_B_iso_or_equiv
_atom_site_symmetry_multiplicity
_atom_site_Wyckoff_symbol
_atom_site_occupancy
O1 O 0.0 0.5 0.5 1.2 . . 1.0
O2 O 0.212 0.0 0.637 1.2 . . 1.0
V3 V 0.0 0.0 0.0 1.2 . . 1.0
V4 V 0.133 0.0 0.388 1.2 . . 1.0
V5 V 0.417 0.0 0.251 1.2 . . 1.0
V6 V 0.705 0.0 0.115 1.2 . . 1.0

