data_01-089-5894
#Copyright 2021 International Centre for Diffraction Data. All rights reserved.

_audit_creation_date                  2021-12-16
_audit_creation_method                'Generated by PDF-4+ 2022 4.22.0.2'

_chemical_name_systematic             'Iron Oxide'
_chemical_name_common                 '?-Fe1.966 O2.963, iron(III) oxide'
_chemical_formula_moiety              'Fe1.966 O2.963'
_chemical_formula_sum                 'Fe1.966 O2.963'
_chemical_formula_weight              157.20

_cell_length_a                        8.346
_cell_length_b                        8.346
_cell_length_c                        25.034
_cell_angle_alpha                     90
_cell_angle_beta                      90
_cell_angle_gamma                     90
_cell_formula_units_Z                 32
_cell_volume                          1743.76
_symmetry_cell_setting                tetragonal
_symmetry_space_group_name_H-M        P43212
_symmetry_Int_Tables_number           96

loop_
_symmetry_equiv_pos_site_id
_symmetry_equiv_pos_as_xyz
1 x,y,z
2 -x,-y,z+1/2
3 -y+1/2,x+1/2,z+3/4
4 y+1/2,-x+1/2,z+1/4
5 y,x,-z
6 -y,-x,-z+1/2
7 -x+1/2,y+1/2,-z+3/4
8 x+1/2,-y+1/2,-z+1/4

loop_
_atom_site_label
_atom_site_type_symbol
_atom_site_fract_x
_atom_site_fract_y
_atom_site_fract_z
_atom_site_B_iso_or_equiv
_atom_site_symmetry_multiplicity
_atom_site_Wyckoff_symbol
_atom_site_occupancy
Fe1 Fe 0.1211 0.1211 0.0 0.57 4 a 1.0
Fe2 Fe 0.6177 0.6177 0.0 0.8 4 a 0.97
Fe3 Fe 0.9903 0.7448 0.0401 0.6 8 b 0.98
Fe4 Fe 0.4986 0.2422 0.0427 0.67 8 b 0.98
Fe5 Fe 0.7527 0.4939 0.1242 0.81 8 b 0.99
Fe6 Fe 0.3674 0.8615 0.0028 0.6 8 b 0.99
Fe7 Fe 0.1288 0.3818 0.0823 0.81 8 b 0.98
Fe8 Fe 0.8777 0.1103 0.0857 0.8 8 b 0.99
Fe9 Fe 0.6216 0.8611 0.086 0.81 8 b 0.97
O10 O 0.1114 0.3814 -0.0024 0.59 8 b 0.99
O11 O 0.8574 0.1276 -4.0E-4 0.58 8 b 0.98
O12 O 0.6294 0.3574 5.0E-4 0.59 8 b 1.0
O13 O 0.6044 0.8577 0.0043 0.6 8 b 0.96
O14 O 0.3646 0.8716 0.079 0.59 8 b 1.0
O15 O 0.6179 0.6291 0.0801 0.6 8 b 0.99
O16 O 0.8724 0.8709 0.0832 0.58 8 b 0.99
O17 O 0.351 0.3981 0.0833 0.6 8 b 1.0
O18 O 0.8804 0.377 0.0853 0.59 8 b 1.0
O19 O 0.1054 0.1538 0.0853 0.59 8 b 0.99
O20 O 0.1088 0.6167 0.0863 0.59 8 b 1.0
O21 O 0.6394 0.109 0.0877 0.8 8 b 0.95

