data_01-078-2581
#Copyright 2021 International Centre for Diffraction Data. All rights reserved.

_audit_creation_date                  2021-12-16
_audit_creation_method                'Generated by PDF-4+ 2022 4.22.0.2'

_chemical_name_systematic             'Copper Vanadium Oxide'
_chemical_name_common                 '\b-Cu2 ( V2 O7 )'
_chemical_formula_moiety              'Cu2 ( V2 O7 )'
_chemical_formula_sum                 'Cu2 O7 V2'
_chemical_formula_weight              340.97

_cell_length_a                        7.687
_cell_length_b                        5.54982
_cell_length_c                        10.09
_cell_angle_alpha                     104.00
_cell_angle_beta                      110.45
_cell_angle_gamma                     46.17
_cell_formula_units_Z                 2
_cell_volume                          290.96
_symmetry_cell_setting                triclinic
_symmetry_space_group_name_H-M        P1
_symmetry_Int_Tables_number           1

loop_
_symmetry_equiv_pos_site_id
_symmetry_equiv_pos_as_xyz
1 x,y,z

loop_
_atom_site_label
_atom_site_type_symbol
_atom_site_fract_x
_atom_site_fract_y
_atom_site_fract_z
_atom_site_U_iso_or_equiv
_atom_site_symmetry_multiplicity
_atom_site_Wyckoff_symbol
_atom_site_occupancy
Cu1 Cu 0.7638 0.8528 0.986 . 1 a 1.0
Cu2 Cu 0.3834 0.8528 0.514 . 1 a 1.0
Cu3 Cu 0.6166 0.1472 0.486 . 1 a 1.0
Cu4 Cu 0.2362 0.1472 0.014 . 1 a 1.0
V5 V 0.5641 0.4438 0.213 . 1 a 1.0
V6 V 0.9921 0.4438 0.287 . 1 a 1.0
V7 V 0.4359 0.5562 0.787 . 1 a 1.0
V8 V 0.0079 0.5562 0.713 . 1 a 1.0
O9 O 0.8646 0.2708 0.25 . 1 a 1.0
O10 O 0.1354 0.7292 0.75 . 1 a 1.0
O11 O 0.3631 0.8058 0.1338 . 1 a 1.0
O12 O 0.8311 0.8058 0.3662 . 1 a 1.0
O13 O 0.6369 0.1942 0.8662 . 1 a 1.0
O14 O 0.1689 0.1942 0.6338 . 1 a 1.0
O15 O 0.5344 0.1762 0.1024 . 1 a 1.0
O16 O 0.2894 0.1762 0.3976 . 1 a 1.0
O17 O 0.4656 0.8238 0.8976 . 1 a 1.0
O18 O 0.7106 0.8238 0.6024 . 1 a 1.0
O19 O 0.4846 0.5024 0.3709 . 1 a 1.0
O20 O 0.013 0.5024 0.1291 . 1 a 1.0
O21 O 0.5154 0.4976 0.6291 . 1 a 1.0
O22 O 0.987 0.4976 0.8709 . 1 a 1.0

