data_00-046-0362
#Copyright 2021 International Centre for Diffraction Data. All rights reserved.

_audit_creation_date                  2021-12-15
_audit_creation_method                'Generated by PDF-4+ 2022 4.22.0.2'

_chemical_name_systematic             'Copper Vanadium Oxide'
_chemical_formula_moiety              'Cu1.3 V9 O22'
_chemical_formula_sum                 'Cu1.3 O22 V9'
_chemical_formula_weight              893.06

_cell_length_a                        10.121
_cell_length_b                        3.6176
_cell_length_c                        21.577
_cell_angle_alpha                     90
_cell_angle_beta                      102.2
_cell_angle_gamma                     90
_cell_formula_units_Z                 2
_cell_volume                          772.17
_symmetry_cell_setting                monoclinic
_symmetry_space_group_name_H-M        P21/m
_symmetry_Int_Tables_number           11

loop_
_symmetry_equiv_pos_site_id
_symmetry_equiv_pos_as_xyz
1 x,y,z
2 -x,-y,-z
3 -x,y+1/2,-z
4 x,-y+1/2,z

loop_
_atom_site_label
_atom_site_type_symbol
_atom_site_fract_x
_atom_site_fract_y
_atom_site_fract_z
_atom_site_U_iso_or_equiv
_atom_site_symmetry_multiplicity
_atom_site_Wyckoff_symbol
_atom_site_occupancy
O1 O 0.07363 0.25 0.19873 . 2 e 1.0
V2 V 0.10713 0.25 0.09357 . 2 e 1.0
O3 O 0.11085 0.25 0.40425 . 2 e 1.0
V4 V 0.11913 0.25 0.52763 . 2 e 1.0
O5 O 0.13662 0.25 0.83332 . 2 e 1.0
O6 O 0.1377 0.25 0.0216 . 2 e 1.0
O7 O 0.14376 0.25 0.60276 . 2 e 1.0
V8 V 0.1525 0.25 0.92741 . 2 e 1.0
V9 V 0.27152 0.25 0.4126 . 2 e 1.0
O10 O 0.27354 0.25 0.73704 . 2 e 1.0
O11 O 0.28642 0.25 0.14412 . 2 e 1.0
O12 O 0.28736 0.25 0.51066 . 2 e 1.0
O13 O 0.29102 0.25 0.32772 . 2 e 1.0
V14 V 0.30364 0.25 0.81235 . 2 e 1.0
V15 V 0.30376 0.25 0.24941 . 2 e 1.0
O16 O 0.31414 0.25 0.93844 . 2 e 1.0
O17 O 0.43275 0.25 0.62935 . 2 e 1.0
O18 O 0.44126 0.25 0.05936 . 2 e 1.0
V19 V 0.4577 0.25 0.13435 . 2 e 1.0
O20 O 0.46429 0.25 0.25179 . 2 e 1.0
V21 V 0.46995 0.25 0.5613 . 2 e 1.0
O22 O 0.50013 0.25 0.84323 . 2 e 1.0
O23 O 0.50183 0.25 0.45523 . 2 e 1.0
Cu24 Cu 0.5366 0.25 0.9966 . 2 e 0.43
Cu25 Cu 0.6308 0.25 0.3158 . 2 e 0.43
O26 O 0.66039 0.25 0.16549 . 2 e 1.0
O27 O 0.67308 0.25 0.58058 . 2 e 1.0
O28 O 0.7534 0.25 0.7653 . 2 e 1.0
O29 O 0.90354 0.25 0.07354 . 2 e 1.0
O30 O 0.92036 0.25 0.49496 . 2 e 1.0
O31 O 0.92474 0.25 0.89054 . 2 e 1.0
Cu32 Cu 0.9417 0.25 0.3427 . 2 e 0.43
V33 V 0.95191 0.25 0.78349 . 2 e 1.0
O34 O 0.98782 0.25 0.71542 . 2 e 1.0

