data_04-025-0335
#Copyright 2021 International Centre for Diffraction Data. All rights reserved.

_audit_creation_date                  2021-12-16
_audit_creation_method                'Generated by PDF-4+ 2022 4.22.0.2'

_chemical_name_systematic             'Iron Oxide'
_chemical_formula_moiety              'Fe3 O4'
_chemical_formula_sum                 'Fe3 O4'
_chemical_formula_weight              231.53

_cell_length_a                        11.8801(17)
_cell_length_b                        11.8457(17)
_cell_length_c                        16.7773(30)
_cell_angle_alpha                     90
_cell_angle_beta                      90.267(9)
_cell_angle_gamma                     90
_cell_formula_units_Z                 32
_cell_volume                          2361.01
_symmetry_cell_setting                monoclinic
_symmetry_space_group_name_H-M        Cc
_symmetry_Int_Tables_number           9

loop_
_symmetry_equiv_pos_site_id
_symmetry_equiv_pos_as_xyz
1 x,y,z
2 x,-y,z+1/2
3 x+1/2,y+1/2,z
4 x+1/2,-y+1/2,z+1/2

loop_
_atom_site_label
_atom_site_type_symbol
_atom_site_fract_x
_atom_site_fract_y
_atom_site_fract_z
_atom_site_U_iso_or_equiv
_atom_site_symmetry_multiplicity
_atom_site_Wyckoff_symbol
_atom_site_occupancy
Fe1 Fe 0.87525 0.75138 0.06523 0.00228 4 a 1.0
Fe2 Fe 0.87803 0.25212 0.0649 0.00216 4 a 1.0
Fe3 Fe 0.62485 0.75223 0.43791 0.00241 4 a 1.0
Fe4 Fe 0.62669 0.25361 0.4378 0.00232 4 a 1.0
Fe5 Fe 0.8747 0.5044 0.19017 0.00218 4 a 1.0
Fe6 Fe 0.88065 7.2E-4 0.18839 0.00215 4 a 1.0
Fe7 Fe 0.6254 0.50148 0.31125 0.00248 4 a 1.0
Fe8 Fe 0.62907 0.00475 0.31273 0.00243 4 a 1.0
Fe9 Fe 0.75081 -0.00164 0.00153 0.00281 4 a 1.0
Fe10 Fe 0.75133 0.49905 5.0E-4 0.00266 4 a 1.0
Fe11 Fe 0.00221 0.50026 0.50159 0.00298 4 a 1.0
Fe12 Fe -0.0025 5.1E-4 0.49693 0.00252 4 a 1.0
Fe13 Fe 0.74812 0.75606 0.25244 0.00261 4 a 1.0
Fe14 Fe 0.75903 0.25194 0.25345 0.00242 4 a 1.0
Fe15 Fe 0.00249 0.74409 0.7512 0.00291 4 a 1.0
Fe16 Fe 0.00217 0.24621 0.75129 0.00246 4 a 1.0
Fe17 Fe 0.87667 0.87864 0.37924 0.00313 4 a 1.0
Fe18 Fe 0.87634 0.38689 0.38042 0.00281 4 a 1.0
Fe19 Fe 0.62647 0.88608 0.12176 0.00262 4 a 1.0
Fe20 Fe 0.62854 0.37465 0.12317 0.00257 4 a 1.0
Fe21 Fe 0.8761 0.6251 0.37643 0.00259 4 a 1.0
Fe22 Fe 0.8756 0.13092 0.37423 0.0028 4 a 1.0
Fe23 Fe 0.62602 0.62727 0.1257 0.00253 4 a 1.0
Fe24 Fe 0.62788 0.12528 0.12614 0.0028 4 a 1.0
O25 O 0.8755 0.8782 -1.8E-4 0.00437 4 a 1.0
O26 O 0.8755 0.3789 -0.0017 0.00373 4 a 1.0
O27 O 0.6261 0.8827 0.50454 0.00297 4 a 1.0
O28 O 0.625 0.38391 0.50523 0.00273 4 a 1.0
O29 O 0.8764 0.6235 3.2E-4 0.00383 4 a 1.0
O30 O 0.8769 0.1242 4.7E-4 0.00383 4 a 1.0
O31 O 0.6234 0.6222 0.50416 0.0041 4 a 1.0
O32 O 0.6257 0.124 0.50264 0.00373 4 a 1.0
O33 O 0.8777 0.86809 0.25346 0.003 4 a 1.0
O34 O 0.874 0.37387 0.25575 0.0037 4 a 1.0
O35 O 0.6294 0.87772 0.24655 0.00347 4 a 1.0
O36 O 0.625 0.37171 0.24642 0.00443 4 a 1.0
O37 O 0.8767 0.63732 0.2544 0.00327 4 a 1.0
O38 O 0.8777 0.13236 0.25168 0.00363 4 a 1.0
O39 O 0.6286 0.63106 0.2463 0.00463 4 a 1.0
O40 O 0.6265 0.13583 0.24877 0.0045 4 a 1.0
O41 O 0.7437 0.75061 0.13004 0.0032 4 a 1.0
O42 O 0.7484 0.256 0.12997 0.0035 4 a 1.0
O43 O 0.7531 0.7548 0.37202 0.00443 4 a 1.0
O44 O 0.756 0.257 0.37401 0.0047 4 a 1.0
O45 O 0.0097 0.7487 0.62877 0.00323 4 a 1.0
O46 O 0.0051 0.2458 0.63022 0.00367 4 a 1.0
O47 O -0.0053 0.746 0.87181 0.00387 4 a 1.0
O48 O -0.0027 0.2438 0.87105 0.00373 4 a 1.0
O49 O 0.74311 0.5032 0.12558 0.0038 4 a 1.0
O50 O 0.7509 7.0E-4 0.12427 0.0044 4 a 1.0
O51 O 0.7526 0.5016 0.37612 0.00333 4 a 1.0
O52 O 0.7594 0.0033 0.37649 0.0035 4 a 1.0
O53 O 0.011 -0.0023 0.62355 0.00433 4 a 1.0
O54 O 0.0027 0.499 0.62591 0.00436 4 a 1.0
O55 O -0.0028 -0.0022 0.87641 0.00353 4 a 1.0
O56 O 4.0E-4 0.4982 0.8774 0.00363 4 a 1.0

loop_
_atom_site_aniso_label
_atom_site_aniso_U_11
_atom_site_aniso_U_12
_atom_site_aniso_U_13
_atom_site_aniso_U_22
_atom_site_aniso_U_23
_atom_site_aniso_U_33
Fe1 0.0028 0.0 1.0E-4 0.00248 -9.0E-5 0.00157
Fe2 0.00273 6.0E-5 1.1E-4 0.00224 -9.0E-5 0.00152
Fe3 0.00298 -1.0E-4 3.9E-4 0.00216 -2.7E-4 0.00209
Fe4 0.003 0.0 4.1E-4 0.00182 -2.4E-4 0.00213
Fe5 0.00274 -8.0E-5 2.0E-4 0.00209 -2.4E-4 0.00172
Fe6 0.0025 3.0E-5 2.7E-4 0.00184 4.0E-5 0.0021
Fe7 0.003 -1.0E-5 3.2E-4 0.0024 -1.3E-4 0.00203
Fe8 0.00263 2.0E-5 2.1E-4 0.00255 -2.7E-4 0.00212
Fe9 0.00339 2.1E-4 -4.0E-5 0.00245 -4.6E-4 0.00259
Fe10 0.00314 3.7E-4 7.0E-5 0.00249 -3.8E-4 0.00236
Fe11 0.00372 2.7E-4 0.00111 0.00255 4.8E-4 0.00269
Fe12 0.00306 2.0E-5 4.5E-4 0.00234 1.9E-4 0.00215
Fe13 0.00364 -2.3E-4 1.4E-4 0.00214 -1.3E-4 0.00206
Fe14 0.00271 1.7E-4 1.4E-4 0.00251 -1.2E-4 0.00203
Fe15 0.00417 -1.3E-4 4.9E-4 0.00256 -1.3E-4 0.00201
Fe16 0.00282 -8.0E-5 3.5E-4 0.00254 -1.5E-4 0.00202
Fe17 0.00348 4.7E-4 8.1E-4 0.00321 5.5E-4 0.00271
Fe18 0.00313 -8.0E-5 2.0E-4 0.003 1.7E-4 0.00229
Fe19 0.00313 -6.0E-5 2.0E-4 0.00256 -2.5E-4 0.00217
Fe20 0.0031 1.4E-4 5.0E-5 0.00237 -2.0E-4 0.00223
Fe21 0.00291 1.2E-4 1.0E-4 0.00303 0.0 0.00184
Fe22 0.00362 -4.1E-4 8.4E-4 0.00227 -5.0E-4 0.00253
Fe23 0.00311 -4.0E-5 3.4E-4 0.00246 -1.8E-4 0.00202
Fe24 0.00297 2.6E-4 4.3E-4 0.00304 -4.7E-4 0.00239
O25 0.0051 -5.0E-4 5.0E-4 0.0037 0.0019 0.0043
O26 0.0044 -4.0E-4 6.0E-4 0.0027 0.0014 0.0041
O27 0.0042 1.0E-4 -1.0E-4 0.0022 -1.0E-4 0.0025
O28 0.0044 5.0E-4 4.0E-4 0.0017 -5.0E-4 0.0021
O29 0.0045 5.0E-4 2.0E-4 0.0039 -0.0015 0.0031
O30 0.0051 7.0E-4 0.0 0.0032 -0.0017 0.0032
O31 0.0057 -2.0E-4 0.001 0.0033 -2.0E-4 0.0033
O32 0.0048 4.0E-4 5.0E-4 0.0031 3.0E-4 0.0033
O33 0.0044 2.0E-4 2.0E-4 9.0E-4 -7.0E-4 0.0037
O34 0.0042 -1.0E-4 -4.0E-4 0.004 4.0E-4 0.0029
O35 0.0046 4.0E-4 3.0E-4 0.0021 -8.0E-4 0.0037
O36 0.0047 4.0E-4 4.0E-4 0.0046 -2.0E-4 0.004
O37 0.005 1.0E-4 4.0E-4 0.002 -0.0011 0.0028
O38 0.0048 -1.0E-4 0.0 0.0022 1.0E-4 0.0039
O39 0.0053 4.0E-4 2.0E-4 0.0046 -7.0E-4 0.004
O40 0.0038 4.0E-4 2.0E-4 0.0057 -3.0E-4 0.004
O41 0.0043 1.0E-4 7.0E-4 0.0029 -3.0E-4 0.0024
O42 0.0044 8.0E-4 5.0E-4 0.0032 -4.0E-4 0.0029
O43 0.0034 4.0E-4 4.0E-4 0.0059 -4.0E-4 0.004
O44 0.0043 -1.0E-4 8.0E-4 0.005 1.0E-4 0.0048
O45 0.0036 -1.0E-4 2.0E-4 0.0036 1.0E-4 0.0025
O46 0.0034 -3.0E-4 0.0 0.0044 7.0E-4 0.0032
O47 0.0039 2.0E-4 -4.0E-4 0.0039 -4.0E-4 0.0038
O48 0.0044 -4.0E-4 -3.0E-4 0.0036 -0.001 0.0032
O49 0.0034 -2.0E-4 -6.0E-4 0.0038 3.0E-4 0.0042
O50 0.0041 1.0E-4 1.0E-4 0.0053 1.0E-4 0.0038
O51 0.0039 -1.0E-4 -2.0E-4 0.0034 -3.0E-4 0.0027
O52 0.0034 -3.0E-4 2.0E-4 0.0038 3.0E-4 0.0033
O53 0.004 1.0E-4 8.0E-4 0.0043 -4.0E-4 0.0047
O54 0.004 0.0 8.0E-4 0.0055 -1.0E-4 0.0036
O55 0.0044 2.0E-4 5.0E-4 0.0031 -1.0E-4 0.0031
O56 0.0047 0.0 3.0E-4 0.0029 1.0E-4 0.0033

