data_04-012-3656
#Copyright 2021 International Centre for Diffraction Data. All rights reserved.

_audit_creation_date                  2021-12-16
_audit_creation_method                'Generated by PDF-4+ 2022 4.22.0.2'

_chemical_name_systematic             'Iron Oxide'
_chemical_formula_moiety              'Fe0.925 O'
_chemical_formula_sum                 'Fe0.925 O'
_chemical_formula_weight              67.66

_cell_length_a                        6.0657
_cell_length_b                        6.0657
_cell_length_c                        14.8847
_cell_angle_alpha                     90
_cell_angle_beta                      90
_cell_angle_gamma                     120
_cell_formula_units_Z                 24
_cell_volume                          474.28
_symmetry_cell_setting                rhombohedral
_symmetry_space_group_name_H-M        R-3
_symmetry_Int_Tables_number           148

loop_
_symmetry_equiv_pos_site_id
_symmetry_equiv_pos_as_xyz
1 x,y,z
2 -x,-y,-z
3 -y,x-y,z
4 y,-x+y,-z
5 -x+y,-x,z
6 x-y,x,-z
7 x+2/3,y+1/3,z+1/3
8 -x+2/3,-y+1/3,-z+1/3
9 -y+2/3,x-y+1/3,z+1/3
10 y+2/3,-x+y+1/3,-z+1/3
11 -x+y+2/3,-x+1/3,z+1/3
12 x-y+2/3,x+1/3,-z+1/3
13 x+1/3,y+2/3,z+2/3
14 -x+1/3,-y+2/3,-z+2/3
15 -y+1/3,x-y+2/3,z+2/3
16 y+1/3,-x+y+2/3,-z+2/3
17 -x+y+1/3,-x+2/3,z+2/3
18 x-y+1/3,x+2/3,-z+2/3

loop_
_atom_site_label
_atom_site_type_symbol
_atom_site_fract_x
_atom_site_fract_y
_atom_site_fract_z
_atom_site_U_iso_or_equiv
_atom_site_symmetry_multiplicity
_atom_site_Wyckoff_symbol
_atom_site_occupancy
O1 O 0.0 0.0 0.25 . 6 c 1.0
O2 O 0.83333 0.66667 0.41667 . 18 f 1.0
Fe3 Fe 0.0 0.0 0.0 . 3 a 0.87
Fe4 Fe 0.0 0.0 0.5 . 3 b 0.87
Fe5 Fe 0.33333 0.16667 0.16667 . 9 d 0.87
Fe6 Fe 0.66667 0.83333 0.33333 . 9 e 0.87
Fe7 Fe 0.0 0.0 0.125 . 6 c 0.028
Fe8 Fe 0.0 0.0 0.625 . 6 c 0.028
Fe9 Fe 0.66667 0.83333 0.45833 . 18 f 0.028
Fe10 Fe 0.33333 0.16667 0.29167 . 18 f 0.028

