data_04-015-2270
#Copyright 2021 International Centre for Diffraction Data. All rights reserved.

_audit_creation_date                  2021-12-16
_audit_creation_method                'Generated by PDF-4+ 2022 4.22.0.2'

_chemical_name_systematic             'Vanadium Oxide'
_chemical_formula_moiety              'V7 O3'
_chemical_formula_sum                 'O3 V7'
_chemical_formula_weight              404.59

_cell_length_a                        9.5536(6)
_cell_length_b                        2.9184(2)
_cell_length_c                        7.7622(9)
_cell_angle_alpha                     90
_cell_angle_beta                      90.32(4)
_cell_angle_gamma                     90
_cell_formula_units_Z                 2
_cell_volume                          216.42
_symmetry_cell_setting                monoclinic
_symmetry_space_group_name_H-M        C2/m
_symmetry_Int_Tables_number           12

loop_
_symmetry_equiv_pos_site_id
_symmetry_equiv_pos_as_xyz
1 x,y,z
2 -x,-y,-z
3 x,-y,z
4 -x,y,-z
5 x+1/2,y+1/2,z
6 -x+1/2,-y+1/2,-z
7 x+1/2,-y+1/2,z
8 -x+1/2,y+1/2,-z

loop_
_atom_site_label
_atom_site_type_symbol
_atom_site_fract_x
_atom_site_fract_y
_atom_site_fract_z
_atom_site_U_iso_or_equiv
_atom_site_symmetry_multiplicity
_atom_site_Wyckoff_symbol
_atom_site_occupancy
V1 V 0.0 0.5 0.5 . 2 d 1.0
V2 V 0.64285 0.0 0.07142 . 4 i 1.0
V3 V 0.78571 0.0 0.64285 . 4 i 1.0
V4 V 0.92857 0.0 0.21428 . 4 i 1.0
O5 O 0.0 0.0 0.0 . 2 a 1.0
O6 O 0.28571 0.0 0.14285 . 4 i 1.0

