data_Mn2_O3_-_04-019-9432
#Copyright 2019 International Centre for Diffraction Data. All rights reserved.

_audit_creation_date                  2019-11-12
_audit_creation_method                'Generated by PDF-4+ 2020 4.20.0.1'

_chemical_name_systematic             'Manganese Oxide'
_chemical_name_common                 '\z-Mn2 O3'
_chemical_formula_moiety              'Mn2 O3'
_chemical_formula_sum                 'Mn2 O3'
_chemical_formula_weight              157.87

_cell_length_a                        10.3043(2)
_cell_length_b                        10.3043(2)
_cell_length_c                        25.7688(5)
_cell_angle_alpha                     90
_cell_angle_beta                      90
_cell_angle_gamma                     120
_cell_volume                          2369.53
_cell_formula_units_Z                 48.00
_symmetry_cell_setting                rhombohedral
_symmetry_space_group_name_H-M        R-3
_symmetry_Int_Tables_number           148

loop_
_symmetry_equiv_pos_site_id
_symmetry_equiv_pos_as_xyz
1 x,y,z
2 -x,-y,-z
3 -y,x-y,z
4 y,-x+y,-z
5 -x+y,-x,z
6 x-y,x,-z
7 x+2/3,y+1/3,z+1/3
8 -x+2/3,-y+1/3,-z+1/3
9 -y+2/3,x-y+1/3,z+1/3
10 y+2/3,-x+y+1/3,-z+1/3
11 -x+y+2/3,-x+1/3,z+1/3
12 x-y+2/3,x+1/3,-z+1/3
13 x+1/3,y+2/3,z+2/3
14 -x+1/3,-y+2/3,-z+2/3
15 -y+1/3,x-y+2/3,z+2/3
16 y+1/3,-x+y+2/3,-z+2/3
17 -x+y+1/3,-x+2/3,z+2/3
18 x-y+1/3,x+2/3,-z+2/3

loop_
_atom_site_label
_atom_site_type_symbol
_atom_site_fract_x
_atom_site_fract_y
_atom_site_fract_z
_atom_site_U_iso_or_equiv
_atom_site_symmetry_multiplicity
_atom_site_Wyckoff_symbol
_atom_site_occupancy
Mn1 Mn 0.6647 0.8357 0.0828 . 18 f 1.0
Mn2 Mn 0.5 0.0 0.5 . 9 d 1.0
Mn3 Mn 0.5 0.0 0.0 . 9 e 1.0
Mn4 Mn 0.0 0.0 0.7623 . 6 c 1.0
Mn5 Mn 0.0 0.0 0.5 . 3 b 1.0
Mn6 Mn 0.0 0.0 0.0 . 3 a 1.0
Mn7 Mn 0.8291 0.1809 0.0403 . 18 f 1.0
Mn8 Mn 0.6807 0.8372 0.2065 . 18 f 1.0
Mn9 Mn 0.0 0.0 0.3869 . 6 c 1.0
Mn10 Mn 0.0 0.0 0.8855 . 6 c 1.0
O11 O 0.705 0.735 0.0223 . 18 f 1.0
O12 O 0.26 0.219 0.2301 . 18 f 1.0
O13 O 0.64 0.934 0.138 . 18 f 1.0
O14 O 0.778 0.817 0.2781 . 18 f 1.0
O15 O 0.829 0.323 -0.019 . 18 f 1.0
O16 O 0.186 0.68 0.2341 . 18 f 1.0
O17 O 0.519 0.342 0.1723 . 18 f 1.0
O18 O 0.814 0.326 0.2622 . 18 f 1.0

