data_Mn_O2_-_04-007-3894
#Copyright 2019 International Centre for Diffraction Data. All rights reserved.

_audit_creation_date                  2019-11-12
_audit_creation_method                'Generated by PDF-4+ 2020 4.20.0.1'

_chemical_name_systematic             'Manganese Oxide'
_chemical_formula_moiety              'Mn O2'
_chemical_formula_sum                 'Mn O2'
_chemical_formula_weight              86.94

_cell_length_a                        4.484
_cell_length_b                        4.484
_cell_length_c                        4.484
_cell_angle_alpha                     90
_cell_angle_beta                      90
_cell_angle_gamma                     90
_cell_volume                          90.16
_cell_formula_units_Z                 2.00
_symmetry_cell_setting                cubic
_symmetry_space_group_name_H-M        Pn-3m
_symmetry_Int_Tables_number           224

loop_
_symmetry_equiv_pos_site_id
_symmetry_equiv_pos_as_xyz
1 x,y,z
2 -x,-y,-z
3 x,-y+1/2,-z+1/2
4 -x,y+1/2,z+1/2
5 -x+1/2,y,-z+1/2
6 x+1/2,-y,z+1/2
7 -x+1/2,-y+1/2,z
8 x+1/2,y+1/2,-z
9 z,x,y
10 -z,-x,-y
11 z,-x+1/2,-y+1/2
12 -z,x+1/2,y+1/2
13 -z+1/2,x,-y+1/2
14 z+1/2,-x,y+1/2
15 -z+1/2,-x+1/2,y
16 z+1/2,x+1/2,-y
17 y,z,x
18 -y,-z,-x
19 y,-z+1/2,-x+1/2
20 -y,z+1/2,x+1/2
21 -y+1/2,z,-x+1/2
22 y+1/2,-z,x+1/2
23 -y+1/2,-z+1/2,x
24 y+1/2,z+1/2,-x
25 x,z,y
26 -x,-z,-y
27 x,-z+1/2,-y+1/2
28 -x,z+1/2,y+1/2
29 -x+1/2,z,-y+1/2
30 x+1/2,-z,y+1/2
31 -x+1/2,-z+1/2,y
32 x+1/2,z+1/2,-y
33 y,x,z
34 -y,-x,-z
35 y,-x+1/2,-z+1/2
36 -y,x+1/2,z+1/2
37 -y+1/2,x,-z+1/2
38 y+1/2,-x,z+1/2
39 -y+1/2,-x+1/2,z
40 y+1/2,x+1/2,-z
41 z,y,x
42 -z,-y,-x
43 z,-y+1/2,-x+1/2
44 -z,y+1/2,x+1/2
45 -z+1/2,y,-x+1/2
46 z+1/2,-y,x+1/2
47 -z+1/2,-y+1/2,x
48 z+1/2,y+1/2,-x

loop_
_atom_site_label
_atom_site_type_symbol
_atom_site_fract_x
_atom_site_fract_y
_atom_site_fract_z
_atom_site_U_iso_or_equiv
_atom_site_symmetry_multiplicity
_atom_site_Wyckoff_symbol
_atom_site_occupancy
O1 O 0.0 0.0 0.0 . 4 b 1.0
Mn2 Mn 0.25 0.25 0.25 . 2 a 1.0

