data_Mn_O_-_04-023-7494
#Copyright 2019 International Centre for Diffraction Data. All rights reserved.

_audit_creation_date                  2019-11-12
_audit_creation_method                'Generated by PDF-4+ 2020 4.20.0.1'

_chemical_name_systematic             'Manganese Oxide'
_chemical_formula_moiety              'Mn O'
_chemical_formula_sum                 'Mn O'
_chemical_formula_weight              70.94

_cell_length_a                        5.4136(1)
_cell_length_b                        3.14263(7)
_cell_length_c                        3.1297(1)
_cell_angle_alpha                     90.000(1)
_cell_angle_beta                      124.976(1)
_cell_angle_gamma                     90.000(1)
_cell_volume                          43.63
_cell_formula_units_Z                 2.00
_symmetry_cell_setting                monoclinic
_symmetry_space_group_name_H-M        C2/m
_symmetry_Int_Tables_number           12

loop_
_symmetry_equiv_pos_site_id
_symmetry_equiv_pos_as_xyz
1 x,y,z
2 -x,-y,-z
3 x,-y,z
4 -x,y,-z
5 x+1/2,y+1/2,z
6 -x+1/2,-y+1/2,-z
7 x+1/2,-y+1/2,z
8 -x+1/2,y+1/2,-z

loop_
_atom_site_label
_atom_site_type_symbol
_atom_site_fract_x
_atom_site_fract_y
_atom_site_fract_z
_atom_site_B_iso_or_equiv
_atom_site_symmetry_multiplicity
_atom_site_Wyckoff_symbol
_atom_site_occupancy
Mn1 Mn 0.0 0.0 0.0 0.15 2 a 1.0
O2 O 0.0 0.5 0.5 0.21 2 d 1.0

