data_Mn5_O8_-_04-007-1171
#Copyright 2019 International Centre for Diffraction Data. All rights reserved.

_audit_creation_date                  2019-11-12
_audit_creation_method                'Generated by PDF-4+ 2020 4.20.0.1'

_chemical_name_systematic             'Manganese Oxide'
_chemical_formula_moiety              'Mn5 O8'
_chemical_formula_sum                 'Mn5 O8'
_chemical_formula_weight              402.68

_cell_length_a                        10.347
_cell_length_b                        5.724
_cell_length_c                        4.852
_cell_angle_alpha                     90
_cell_angle_beta                      109.42
_cell_angle_gamma                     90
_cell_volume                          271.02
_cell_formula_units_Z                 2.00
_symmetry_cell_setting                monoclinic
_symmetry_space_group_name_H-M        C2/m
_symmetry_Int_Tables_number           12

loop_
_symmetry_equiv_pos_site_id
_symmetry_equiv_pos_as_xyz
1 x,y,z
2 -x,-y,-z
3 x,-y,z
4 -x,y,-z
5 x+1/2,y+1/2,z
6 -x+1/2,-y+1/2,-z
7 x+1/2,-y+1/2,z
8 -x+1/2,y+1/2,-z

loop_
_atom_site_label
_atom_site_type_symbol
_atom_site_fract_x
_atom_site_fract_y
_atom_site_fract_z
_atom_site_B_iso_or_equiv
_atom_site_symmetry_multiplicity
_atom_site_Wyckoff_symbol
_atom_site_occupancy
Mn1 Mn 0.0 0.0 0.5 1.1 2 c 1.0
Mn2 Mn 0.0 0.262 0.0 1.1 4 g 1.0
Mn3 Mn 0.73 0.0 0.662 1.2 4 i 1.0
O4 O 0.098 0.234 0.394 1.4 8 j 1.0
O5 O 0.093 0.0 0.905 1.4 4 i 1.0
O6 O 0.611 0.0 0.925 1.4 4 i 1.0

