data_Mn3_O4_-_04-004-8640
#Copyright 2019 International Centre for Diffraction Data. All rights reserved.

_audit_creation_date                  2019-11-12
_audit_creation_method                'Generated by PDF-4+ 2020 4.20.0.1'

_chemical_name_systematic             'Manganese Oxide'
_chemical_formula_moiety              'Mn3 O4'
_chemical_formula_sum                 'Mn3 O4'
_chemical_formula_weight              228.81

_cell_length_a                        5.75
_cell_length_b                        5.75
_cell_length_c                        9.42
_cell_angle_alpha                     90
_cell_angle_beta                      90
_cell_angle_gamma                     90
_cell_volume                          311.45
_cell_formula_units_Z                 4.00
_symmetry_cell_setting                tetragonal
_symmetry_space_group_name_H-M        I41/amd
_symmetry_Int_Tables_number           141

loop_
_symmetry_equiv_pos_site_id
_symmetry_equiv_pos_as_xyz
1 x,y,z
2 -x+1/2,-y+1/2,z+1/2
3 x+1/2,y,-z+3/4
4 -x,-y+1/2,-z+1/4
5 -x,y,z
6 x+1/2,-y+1/2,z+1/2
7 -x+1/2,y,-z+3/4
8 x,-y+1/2,-z+1/4
9 y+1/2,x+1/2,-z+1/2
10 -y,-x,-z
11 y,x+1/2,z+1/4
12 -y+1/2,-x,z+3/4
13 -y+1/2,x+1/2,-z+1/2
14 y,-x,-z
15 -y,x+1/2,z+1/4
16 y+1/2,-x,z+3/4
17 x+1/2,y+1/2,z+1/2
18 -x,-y,z
19 x,y+1/2,-z+1/4
20 -x+1/2,-y,-z+3/4
21 -x+1/2,y+1/2,z+1/2
22 x,-y,z
23 -x,y+1/2,-z+1/4
24 x+1/2,-y,-z+3/4
25 y,x,-z
26 -y+1/2,-x+1/2,-z+1/2
27 y+1/2,x,z+3/4
28 -y,-x+1/2,z+1/4
29 -y,x,-z
30 y+1/2,-x+1/2,-z+1/2
31 -y+1/2,x,z+3/4
32 y,-x+1/2,z+1/4

loop_
_atom_site_label
_atom_site_type_symbol
_atom_site_fract_x
_atom_site_fract_y
_atom_site_fract_z
_atom_site_U_iso_or_equiv
_atom_site_symmetry_multiplicity
_atom_site_Wyckoff_symbol
_atom_site_occupancy
Mn1 Mn 0.0 0.0 0.0 . 4 a 1.0
Mn2 Mn 0.0 0.25 0.625 . 8 d 1.0
O3 O 0.0 0.25 0.375 . 16 h 1.0

