data_Nb6_Mn3_O11_-_04-012-3177
#Copyright 2019 International Centre for Diffraction Data. All rights reserved.

_audit_creation_date                  2019-11-12
_audit_creation_method                'Generated by PDF-4+ 2020 4.20.0.1'

_chemical_name_systematic             'Niobium Manganese Oxide'
_chemical_formula_moiety              'Nb6 Mn3 O11'
_chemical_formula_sum                 'Mn3 Nb6 O11'
_chemical_formula_weight              898.24

_cell_length_a                        6.080(1)
_cell_length_b                        6.080(1)
_cell_length_c                        7.627(1)
_cell_angle_alpha                     90
_cell_angle_beta                      90
_cell_angle_gamma                     120
_cell_volume                          244.17
_cell_formula_units_Z                 1.00
_symmetry_cell_setting                hexagonal
_symmetry_space_group_name_H-M        P-3m1
_symmetry_Int_Tables_number           164

loop_
_symmetry_equiv_pos_site_id
_symmetry_equiv_pos_as_xyz
1 x,y,z
2 -x,-y,-z
3 -y,x-y,z
4 y,-x+y,-z
5 -x+y,-x,z
6 x-y,x,-z
7 -y,-x,z
8 y,x,-z
9 x,x-y,z
10 -x,-x+y,-z
11 -x+y,y,z
12 x-y,-y,-z

loop_
_atom_site_label
_atom_site_type_symbol
_atom_site_fract_x
_atom_site_fract_y
_atom_site_fract_z
_atom_site_U_iso_or_equiv
_atom_site_symmetry_multiplicity
_atom_site_Wyckoff_symbol
_atom_site_occupancy
Nb1 Nb 0.1547 -0.1547 0.1492 0.0038 6 i 1.0
Mn2 Mn 0.0 0.0 0.5 0.0058 1 b 1.0
Mn3 Mn 0.66666 0.33333 0.4301 0.007 2 d 1.0
O4 O 0.5 0.5 0.0 0.0052 3 e 1.0
O5 O -0.1565 0.1565 0.3166 0.0062 6 i 1.0
O6 O 0.33333 0.66666 0.3025 0.0068 2 d 1.0

