data_V7_O13_-_00-018-1449
#Copyright 2019 International Centre for Diffraction Data. All rights reserved.

_audit_creation_date                  2019-11-12
_audit_creation_method                'Generated by PDF-4+ 2020 4.20.0.1'

_chemical_name_systematic             'Vanadium Oxide'
_chemical_formula_moiety              'V7 O13'
_chemical_formula_sum                 'O13 V7'
_chemical_formula_weight              564.58

_cell_length_a                        5.43
_cell_length_b                        7.0
_cell_length_c                        11.1117
_cell_angle_alpha                     84.128
_cell_angle_beta                      88.913
_cell_angle_gamma                     71.1
_cell_volume                          397.44
_cell_formula_units_Z                 2.00
_symmetry_cell_setting                triclinic
_symmetry_space_group_name_H-M        P-1
_symmetry_Int_Tables_number           2

loop_
_symmetry_equiv_pos_site_id
_symmetry_equiv_pos_as_xyz
1 x,y,z
2 -x,-y,-z

loop_
_atom_site_label
_atom_site_type_symbol
_atom_site_fract_x
_atom_site_fract_y
_atom_site_fract_z
_atom_site_U_iso_or_equiv
_atom_site_symmetry_multiplicity
_atom_site_Wyckoff_symbol
_atom_site_occupancy
O1 O 0.00265 0.00377 0.20298 . 2 i 1.0
O2 O 0.0538 0.153 0.5564 . 2 i 1.0
O3 O 0.0734 0.3154 0.3142 . 2 i 1.0
V4 V 0.10526 0.73976 0.14776 . 2 i 1.0
V5 V 0.11271 0.23662 0.14576 . 2 i 1.0
O6 O 0.1333 0.17034 0.98676 . 2 i 1.0
O7 O 0.1796 0.28768 0.75192 . 2 i 1.0
O8 O 0.22005 0.47231 0.09974 . 2 i 1.0
V9 V 0.28836 0.01253 0.70406 . 2 i 1.0
V10 V 0.29042 0.71248 0.44778 . 2 i 1.0
V11 V 0.29786 0.2107 0.44336 . 2 i 1.0
O12 O 0.29865 0.45215 0.5293 . 2 i 1.0
O13 O 0.35005 0.63309 0.29366 . 2 i 1.0
O14 O 0.38765 0.76549 0.05146 . 2 i 1.0
O15 O 0.46675 0.07663 0.16742 . 2 i 1.0
O16 O 0.55715 0.07037 0.59058 . 2 i 1.0
O17 O 0.63115 0.23967 0.37698 . 2 i 1.0
V18 V 0.71527 0.48897 0.2924 . 2 i 1.0
O19 O 0.74205 0.40381 0.14074 . 2 i 1.0
V20 V 0.5 0.5 0.0 . 1 e 1.0
V21 V 0.5 0.0 0.0 . 1 d 1.0

