data_Nb9_V_O25_-_00-049-0289
#Copyright 2019 International Centre for Diffraction Data. All rights reserved.

_audit_creation_date                  2019-11-12
_audit_creation_method                'Generated by PDF-4+ 2020 4.20.0.1'

_chemical_name_systematic             'Niobium Vanadium Oxide'
_chemical_formula_moiety              'Nb9 V O25'
_chemical_formula_sum                 'Nb9 O25 V'
_chemical_formula_weight              1287.08

_cell_length_a                        15.690(2)
_cell_length_b                        15.690(2)
_cell_length_c                        3.8172(9)
_cell_angle_alpha                     90
_cell_angle_beta                      90
_cell_angle_gamma                     90
_cell_volume                          941.48
_cell_formula_units_Z                 2.00
_symmetry_cell_setting                tetragonal
_symmetry_space_group_name_H-M        I-4
_symmetry_Int_Tables_number           82

loop_
_symmetry_equiv_pos_site_id
_symmetry_equiv_pos_as_xyz
1 x,y,z
2 -x,-y,z
3 y,-x,-z
4 -y,x,-z
5 x+1/2,y+1/2,z+1/2
6 -x+1/2,-y+1/2,z+1/2
7 y+1/2,-x+1/2,-z+1/2
8 -y+1/2,x+1/2,-z+1/2

loop_
_atom_site_label
_atom_site_type_symbol
_atom_site_fract_x
_atom_site_fract_y
_atom_site_fract_z
_atom_site_U_iso_or_equiv
_atom_site_symmetry_multiplicity
_atom_site_Wyckoff_symbol
_atom_site_occupancy
Nb1 Nb 0.2189 0.1052 -0.0022 0.00683 8 g 1.0
O2 O 0.1763 0.217 -0.0085 0.01 8 g 1.0
O3 O 0.2512 0.1108 0.4872 0.005 8 g 1.0
O4 O 0.9503 0.116 -0.0112 0.01 8 g 1.0
O5 O 0.3532 0.1577 -0.0042 0.006 8 g 1.0
O6 O 0.0 0.0 0.5 0.009 2 b 0.9
V7 V 0.0 0.5 0.25 0.0099 2 c 1.0
O8 O 0.4868 0.2189 0.5085 0.009 8 g 1.0
O9 O 0.0743 0.447 0.0231 0.005 8 g 1.0
Nb10 Nb 0.0 0.0 0.0 0.0217 2 a 1.0
Nb11 Nb 0.6749 0.1179 1.0E-4 0.0075 8 g 1.0

loop_
_atom_site_aniso_label
_atom_site_aniso_U_11
_atom_site_aniso_U_12
_atom_site_aniso_U_13
_atom_site_aniso_U_22
_atom_site_aniso_U_23
_atom_site_aniso_U_33
Nb1 0.0046 -7.0E-4 -0.0029 0.0094 -0.0031 0.0065
V7 0.0094 0.0 0.0 0.0094 0.0 0.0109
Nb10 0.0089 0.0 0.0 0.0089 0.0 0.0473
Nb11 0.0093 0.0028 4.0E-4 0.0062 0.0021 0.007

