data_Mn2_O3_-_04-019-9433
#Copyright 2019 International Centre for Diffraction Data. All rights reserved.

_audit_creation_date                  2019-11-12
_audit_creation_method                'Generated by PDF-4+ 2020 4.20.0.1'

_chemical_name_systematic             'Manganese Oxide'
_chemical_name_common                 '\z-Mn2 O3'
_chemical_formula_moiety              'Mn2 O3'
_chemical_formula_sum                 'Mn2 O3'
_chemical_formula_weight              157.87

_cell_length_a                        14.6985(2)
_cell_length_b                        14.6482(2)
_cell_length_c                        14.6705(2)
_cell_angle_alpha                     89.2108(8)
_cell_angle_beta                      89.2031(9)
_cell_angle_gamma                     89.196(1)
_cell_volume                          3157.75
_cell_formula_units_Z                 16.00
_symmetry_cell_setting                triclinic
_symmetry_space_group_name_H-M        F-1
_symmetry_Int_Tables_number           2

loop_
_symmetry_equiv_pos_site_id
_symmetry_equiv_pos_as_xyz
1 x,y,z
2 -x,-y,-z
3 x,y+1/2,z+1/2
4 -x,-y+1/2,-z+1/2
5 x+1/2,y,z+1/2
6 -x+1/2,-y,-z+1/2
7 x+1/2,y+1/2,z
8 -x+1/2,-y+1/2,-z

loop_
_atom_site_label
_atom_site_type_symbol
_atom_site_fract_x
_atom_site_fract_y
_atom_site_fract_z
_atom_site_U_iso_or_equiv
_atom_site_symmetry_multiplicity
_atom_site_Wyckoff_symbol
_atom_site_occupancy
Mn1 Mn -0.2499 -0.0027 0.5002 . 8 i 1.0
Mn2 Mn 0.5002 -0.2499 -0.0027 . 8 i 1.0
Mn3 Mn -0.0027 0.5002 -0.2499 . 8 i 1.0
Mn4 Mn 0.25 0.75 0.5 . 4 b 1.0
Mn5 Mn 0.5 0.25 0.75 . 4 d 1.0
Mn6 Mn 0.75 0.5 0.25 . 4 c 1.0
Mn7 Mn 0.75 0.25 0.0 . 4 e 1.0
Mn8 Mn 0.0 0.75 0.25 . 4 g 1.0
Mn9 Mn 0.25 0.0 0.75 . 4 f 1.0
Mn10 Mn 0.7618 0.7669 0.7565 . 8 i 1.0
Mn11 Mn 0.5 0.5 0.5 . 4 h 1.0
Mn12 Mn 0.0 0.0 0.0 . 4 a 1.0
Mn13 Mn -0.3734 0.3643 0.1297 . 8 i 1.0
Mn14 Mn 0.1297 -0.3734 0.3643 . 8 i 1.0
Mn15 Mn 0.3643 0.1297 -0.3734 . 8 i 1.0
Mn16 Mn -0.1331 0.1266 0.6263 . 8 i 1.0
Mn17 Mn 0.6263 -0.1331 0.1266 . 8 i 1.0
Mn18 Mn 0.1266 0.6263 -0.1331 . 8 i 1.0
Mn19 Mn 0.3893 0.3918 0.3818 . 8 i 1.0
Mn20 Mn 0.8875 0.8892 0.8805 . 8 i 1.0
O21 O -0.3304 0.008 0.3901 . 8 i 1.0
O22 O 0.3901 -0.3304 0.008 . 8 i 1.0
O23 O 0.008 0.3901 -0.3304 . 8 i 1.0
O24 O 0.1005 0.2536 0.3352 . 8 i 1.0
O25 O 0.3352 0.1005 0.2536 . 8 i 1.0
O26 O 0.2536 0.3352 0.1005 . 8 i 1.0
O27 O -0.1809 -0.0101 0.6039 . 8 i 1.0
O28 O 0.6039 -0.1809 -0.0101 . 8 i 1.0
O29 O -0.0101 0.6039 -0.1809 . 8 i 1.0
O30 O -0.11 0.2579 0.6842 . 8 i 1.0
O31 O 0.6842 -0.11 0.2579 . 8 i 1.0
O32 O 0.2579 0.6842 -0.11 . 8 i 1.0
O33 O -0.4291 0.2313 0.143 . 8 i 1.0
O34 O 0.143 -0.4291 0.2313 . 8 i 1.0
O35 O 0.2313 0.143 -0.4291 . 8 i 1.0
O36 O 0.144 -0.014 0.595 . 8 i 1.0
O37 O 0.571 0.142 -0.003 . 8 i 1.0
O38 O -0.015 0.562 0.138 . 8 i 1.0
O39 O -0.084 0.263 0.355 . 8 i 1.0
O40 O 0.35 -0.074 0.261 . 8 i 1.0
O41 O 0.253 0.327 -0.099 . 8 i 1.0
O42 O -0.154 0.51 0.403 . 8 i 1.0
O43 O 0.434 -0.143 0.503 . 8 i 1.0
O44 O 0.513 0.438 -0.141 . 8 i 1.0

