data_Nb_O2_-_04-021-3051
#Copyright 2019 International Centre for Diffraction Data. All rights reserved.

_audit_creation_date                  2019-11-12
_audit_creation_method                'Generated by PDF-4+ 2020 4.20.0.1'

_chemical_name_systematic             'Niobium Oxide'
_chemical_name_common                 '\b-Nb O2'
_chemical_formula_moiety              'Nb O2'
_chemical_formula_sum                 'Nb O2'
_chemical_formula_weight              124.90

_cell_length_a                        9.6076
_cell_length_b                        9.6076
_cell_length_c                        5.9482
_cell_angle_alpha                     90
_cell_angle_beta                      90
_cell_angle_gamma                     90
_cell_volume                          549.05
_cell_formula_units_Z                 16.00
_symmetry_cell_setting                tetragonal
_symmetry_space_group_name_H-M        I41
_symmetry_Int_Tables_number           80

loop_
_symmetry_equiv_pos_site_id
_symmetry_equiv_pos_as_xyz
1 x,y,z
2 -x,-y,z
3 -y,x+1/2,z+1/4
4 y,-x+1/2,z+1/4
5 x+1/2,y+1/2,z+1/2
6 -x+1/2,-y+1/2,z+1/2
7 -y+1/2,x,z+3/4
8 y+1/2,-x,z+3/4

loop_
_atom_site_label
_atom_site_type_symbol
_atom_site_fract_x
_atom_site_fract_y
_atom_site_fract_z
_atom_site_U_iso_or_equiv
_atom_site_symmetry_multiplicity
_atom_site_Wyckoff_symbol
_atom_site_occupancy
O1 O 0.1026 0.6497 0.0273 . 8 b 1.0
O2 O 0.1038 0.15 0.018 . 8 b 1.0
Nb3 Nb 0.2379 0.0076 0.0495 . 8 b 1.0
Nb4 Nb 0.2455 0.5091 0.0 . 8 b 1.0
O5 O 0.3609 0.1086 0.276 . 8 b 1.0
O6 O 0.6102 0.1358 0.0107 . 8 b 1.0

