data_Mn_O_-_04-006-3704
#Copyright 2019 International Centre for Diffraction Data. All rights reserved.

_audit_creation_date                  2019-11-12
_audit_creation_method                'Generated by PDF-4+ 2020 4.20.0.1'

_chemical_name_systematic             'Manganese Oxide'
_chemical_formula_moiety              'Mn O'
_chemical_formula_sum                 'Mn O'
_chemical_formula_weight              70.94

_cell_length_a                        3.1223
_cell_length_b                        3.1223
_cell_length_c                        7.6501
_cell_angle_alpha                     90
_cell_angle_beta                      90
_cell_angle_gamma                     120
_cell_volume                          64.59
_cell_formula_units_Z                 3.00
_symmetry_cell_setting                rhombohedral
_symmetry_space_group_name_H-M        R3m
_symmetry_Int_Tables_number           160

loop_
_symmetry_equiv_pos_site_id
_symmetry_equiv_pos_as_xyz
1 x,y,z
2 -y,x-y,z
3 -x+y,-x,z
4 -y,-x,z
5 x,x-y,z
6 -x+y,y,z
7 x+2/3,y+1/3,z+1/3
8 -y+2/3,x-y+1/3,z+1/3
9 -x+y+2/3,-x+1/3,z+1/3
10 -y+2/3,-x+1/3,z+1/3
11 x+2/3,x-y+1/3,z+1/3
12 -x+y+2/3,y+1/3,z+1/3
13 x+1/3,y+2/3,z+2/3
14 -y+1/3,x-y+2/3,z+2/3
15 -x+y+1/3,-x+2/3,z+2/3
16 -y+1/3,-x+2/3,z+2/3
17 x+1/3,x-y+2/3,z+2/3
18 -x+y+1/3,y+2/3,z+2/3

loop_
_atom_site_label
_atom_site_type_symbol
_atom_site_fract_x
_atom_site_fract_y
_atom_site_fract_z
_atom_site_U_iso_or_equiv
_atom_site_symmetry_multiplicity
_atom_site_Wyckoff_symbol
_atom_site_occupancy
O1 O 0.0 0.0 0.0 . 3 a 1.0
Mn2 Mn 0.0 0.0 0.4752 . 3 a 1.0

