data_Nb2_O5_-_04-002-5523
#Copyright 2019 International Centre for Diffraction Data. All rights reserved.

_audit_creation_date                  2019-11-12
_audit_creation_method                'Generated by PDF-4+ 2020 4.20.0.1'

_chemical_name_systematic             'Niobium Oxide'
_chemical_formula_moiety              'Nb2 O5'
_chemical_formula_sum                 'Nb2 O5'
_chemical_formula_weight              265.81

_cell_length_a                        19.33
_cell_length_b                        3.823
_cell_length_c                        20.4196
_cell_angle_alpha                     90
_cell_angle_beta                      116.015
_cell_angle_gamma                     90
_cell_volume                          1356.09
_cell_formula_units_Z                 14.00
_symmetry_cell_setting                monoclinic
_symmetry_space_group_name_H-M        P2
_symmetry_Int_Tables_number           3

loop_
_symmetry_equiv_pos_site_id
_symmetry_equiv_pos_as_xyz
1 x,y,z
2 -x,y,-z

loop_
_atom_site_label
_atom_site_type_symbol
_atom_site_fract_x
_atom_site_fract_y
_atom_site_fract_z
_atom_site_U_iso_or_equiv
_atom_site_symmetry_multiplicity
_atom_site_Wyckoff_symbol
_atom_site_occupancy
Nb1 Nb 0.0044 0.0 0.7354 . 2 e 1.0
O2 O 0.019 0.5 0.444 . 2 e 1.0
O3 O 0.021 0.5 0.306 . 2 e 1.0
O4 O 0.073 0.0 0.369 . 2 e 1.0
O5 O 0.08 0.0 0.239 . 2 e 1.0
O6 O 0.08 0.0 0.694 . 2 e 1.0
O7 O 0.081 0.0 0.83 . 2 e 1.0
O8 O 0.082 0.0 0.102 . 2 e 1.0
O9 O 0.084 0.0 0.556 . 2 e 1.0
Nb10 Nb 0.1069 0.5 0.4062 . 2 e 1.0
Nb11 Nb 0.1527 0.0 0.1983 . 2 e 1.0
Nb12 Nb 0.1623 0.0 0.6623 . 2 e 1.0
O13 O 0.176 0.5 0.365 . 2 e 1.0
O14 O 0.176 0.5 0.5 . 2 e 1.0
O15 O 0.181 0.5 0.234 . 2 e 1.0
O16 O 0.184 0.5 0.655 . 2 e 1.0
O17 O 0.235 0.0 0.163 . 2 e 1.0
O18 O 0.24 0.0 0.035 . 2 e 1.0
O19 O 0.243 0.0 0.3 . 2 e 1.0
O20 O 0.245 0.0 0.617 . 2 e 1.0
Nb21 Nb 0.2645 0.5 0.601 . 2 e 1.0
Nb22 Nb 0.2647 0.5 0.3402 . 2 e 1.0
Nb23 Nb 0.3064 0.0 0.1303 . 2 e 1.0
O24 O 0.332 0.5 0.567 . 2 e 1.0
O25 O 0.338 0.5 0.432 . 2 e 1.0
O26 O 0.344 0.5 0.299 . 2 e 1.0
O27 O 0.346 0.5 0.158 . 2 e 1.0
O28 O 0.392 0.0 0.09 . 2 e 1.0
O29 O 0.403 0.0 0.243 . 2 e 1.0
Nb30 Nb 0.4188 0.5 0.2701 . 2 e 1.0
O31 O 0.424 0.0 0.535 . 2 e 1.0
Nb32 Nb 0.4241 0.5 0.535 . 2 e 1.0
Nb33 Nb 0.4699 0.0 0.0635 . 2 e 1.0
O34 O 0.497 0.5 0.362 . 2 e 1.0
O35 O 0.501 0.5 0.232 . 2 e 1.0
O36 O 0.503 0.5 0.094 . 2 e 1.0
O37 O 0.561 0.0 0.157 . 2 e 1.0
O38 O 0.577 0.0 0.04 . 2 e 1.0
Nb39 Nb 0.5791 0.5 0.2028 . 2 e 1.0
O40 O 0.655 0.5 0.145 . 2 e 1.0
O41 O 0.663 0.5 0.293 . 2 e 1.0
Nb42 Nb 0.6838 0.0 0.1391 . 2 e 1.0
O43 O 0.748 0.0 0.093 . 2 e 1.0
O44 O 0.754 0.0 0.24 . 2 e 1.0
O45 O 0.815 0.5 0.074 . 2 e 1.0
Nb46 Nb 0.8445 0.0 0.0669 . 2 e 1.0
O47 O 0.923 0.0 0.039 . 2 e 1.0
O48 O 0.5 0.5 0.5 . 1 d 1.0
Nb49 Nb 0.0 0.25 0.5 . 1 b 1.0
Nb50 Nb 0.0 0.0 0.0 . 1 a 1.0
O51 O 0.0 0.5 0.0 . 1 a 1.0

