data_V4_O7_-_04-005-4468
#Copyright 2019 International Centre for Diffraction Data. All rights reserved.

_audit_creation_date                  2019-11-12
_audit_creation_method                'Generated by PDF-4+ 2020 4.20.0.1'

_chemical_name_systematic             'Vanadium Oxide'
_chemical_formula_moiety              'V4 O7'
_chemical_formula_sum                 'O7 V4'
_chemical_formula_weight              315.76

_cell_length_a                        5.51
_cell_length_b                        7.01
_cell_length_c                        7.01
_cell_angle_alpha                     66.39
_cell_angle_beta                      75.64
_cell_angle_gamma                     70.8
_cell_volume                          232.17
_cell_formula_units_Z                 2.00
_symmetry_cell_setting                triclinic
_symmetry_space_group_name_H-M        P-1
_symmetry_Int_Tables_number           2

loop_
_symmetry_equiv_pos_site_id
_symmetry_equiv_pos_as_xyz
1 x,y,z
2 -x,-y,-z

loop_
_atom_site_label
_atom_site_type_symbol
_atom_site_fract_x
_atom_site_fract_y
_atom_site_fract_z
_atom_site_U_iso_or_equiv
_atom_site_symmetry_multiplicity
_atom_site_Wyckoff_symbol
_atom_site_occupancy
O1 O 0.02679 0.17154 0.01927 . 2 i 1.0
O2 O 0.0872 0.3844 0.2654 . 2 i 1.0
O3 O 0.17116 0.77796 0.29968 . 2 i 1.0
V4 V 0.1834 0.09772 0.76111 . 2 i 1.0
V5 V 0.18829 0.09734 0.25897 . 2 i 1.0
V6 V 0.28386 0.62558 0.08996 . 2 i 1.0
O7 O 0.3557 0.3372 0.5851 . 2 i 1.0
O8 O 0.53759 0.10314 0.12867 . 2 i 1.0
O9 O 0.60805 0.4695 0.15235 . 2 i 1.0
V10 V 0.71856 0.36766 0.41357 . 2 i 1.0
O11 O 0.79526 0.05236 0.43338 . 2 i 1.0

