data_V_Mn_O3_-_04-007-4425
#Copyright 2019 International Centre for Diffraction Data. All rights reserved.

_audit_creation_date                  2019-11-12
_audit_creation_method                'Generated by PDF-4+ 2020 4.20.0.1'

_chemical_name_systematic             'Vanadium Manganese Oxide'
_chemical_formula_moiety              'V Mn O3'
_chemical_formula_sum                 'Mn O3 V'
_chemical_formula_weight              153.88

_cell_length_a                        5.265
_cell_length_b                        7.387
_cell_length_c                        5.106
_cell_angle_alpha                     90
_cell_angle_beta                      90
_cell_angle_gamma                     90
_cell_volume                          198.59
_cell_formula_units_Z                 4.00
_symmetry_cell_setting                orthorhombic
_symmetry_space_group_name_H-M        Pnma
_symmetry_Int_Tables_number           62

loop_
_symmetry_equiv_pos_site_id
_symmetry_equiv_pos_as_xyz
1 x,y,z
2 -x,-y,-z
3 x+1/2,-y+1/2,-z+1/2
4 -x+1/2,y+1/2,z+1/2
5 -x,y+1/2,-z
6 x,-y+1/2,z
7 -x+1/2,-y,z+1/2
8 x+1/2,y,-z+1/2

loop_
_atom_site_label
_atom_site_type_symbol
_atom_site_fract_x
_atom_site_fract_y
_atom_site_fract_z
_atom_site_U_iso_or_equiv
_atom_site_symmetry_multiplicity
_atom_site_Wyckoff_symbol
_atom_site_occupancy
O1 O 0.1984 0.0506 0.3043 . 8 d 1.0
V2 V 0.43716 0.25 0.01556 . 4 c 1.0
O3 O 0.5328 0.25 0.6005 . 4 c 1.0
Mn4 Mn 0.0 0.0 0.0 . 4 a 1.0

