data_V8_O15_-_04-008-0735
#Copyright 2019 International Centre for Diffraction Data. All rights reserved.

_audit_creation_date                  2019-11-12
_audit_creation_method                'Generated by PDF-4+ 2020 4.20.0.1'

_chemical_name_systematic             'Vanadium Oxide'
_chemical_formula_moiety              'V8 O15'
_chemical_formula_sum                 'O15 V8'
_chemical_formula_weight              647.52

_cell_length_a                        5.42
_cell_length_b                        7.02
_cell_length_c                        13.1
_cell_angle_alpha                     100.2
_cell_angle_beta                      95.7
_cell_angle_gamma                     109.5
_cell_volume                          455.63
_cell_formula_units_Z                 2.00
_symmetry_cell_setting                triclinic
_symmetry_space_group_name_H-M        P-1
_symmetry_Int_Tables_number           2

loop_
_symmetry_equiv_pos_site_id
_symmetry_equiv_pos_as_xyz
1 x,y,z
2 -x,-y,-z

loop_
_atom_site_label
_atom_site_type_symbol
_atom_site_fract_x
_atom_site_fract_y
_atom_site_fract_z
_atom_site_U_iso_or_equiv
_atom_site_symmetry_multiplicity
_atom_site_Wyckoff_symbol
_atom_site_occupancy
O1 O 0.0105 0.1462 0.8386 . 2 i 1.0
V2 V 0.01056 0.81047 0.3084 . 2 i 1.0
V3 V 0.01662 0.31551 0.30686 . 2 i 1.0
O4 O 0.0367 0.77806 0.44596 . 2 i 1.0
O5 O 0.07205 0.35835 0.0495 . 2 i 1.0
O6 O 0.09915 0.56659 0.25874 . 2 i 1.0
O7 O 0.2333 0.64064 0.60984 . 2 i 1.0
O8 O 0.26485 0.26429 0.21914 . 2 i 1.0
O9 O 0.3037 0.43124 0.42284 . 2 i 1.0
O10 O 0.30745 0.05447 0.02562 . 2 i 1.0
V11 V 0.3334 0.39765 0.56468 . 2 i 1.0
O12 O 0.35135 0.35417 0.71022 . 2 i 1.0
V13 V 0.35606 0.03413 0.18048 . 2 i 1.0
V14 V 0.36035 0.53045 0.17718 . 2 i 1.0
O15 O 0.411 0.76624 0.10644 . 2 i 1.0
O16 O 0.42965 0.15347 0.52302 . 2 i 1.0
O17 O 0.5883 0.44692 0.07852 . 2 i 1.0
O18 O 0.62005 0.02081 0.68766 . 2 i 1.0
V19 V 0.6738 0.10283 0.43528 . 2 i 1.0
O20 O 0.7208 0.17654 0.17964 . 2 i 1.0
V21 V 0.72141 0.72313 0.0496 . 2 i 1.0
V22 V 0.72826 0.22285 0.04556 . 2 i 1.0
O23 O 0.91585 0.05613 0.34678 . 2 i 1.0

