data_Nb2_Mn_O6_-_04-002-5430
#Copyright 2019 International Centre for Diffraction Data. All rights reserved.

_audit_creation_date                  2019-11-12
_audit_creation_method                'Generated by PDF-4+ 2020 4.20.0.1'

_chemical_name_systematic             'Niobium Manganese Oxide'
_chemical_formula_moiety              'Nb2 Mn O6'
_chemical_formula_sum                 'Mn Nb2 O6'
_chemical_formula_weight              336.74

_cell_length_a                        14.39
_cell_length_b                        5.766
_cell_length_c                        5.081
_cell_angle_alpha                     90
_cell_angle_beta                      90
_cell_angle_gamma                     90
_cell_volume                          421.58
_cell_formula_units_Z                 4.00
_symmetry_cell_setting                orthorhombic
_symmetry_space_group_name_H-M        Pbcn
_symmetry_Int_Tables_number           60

loop_
_symmetry_equiv_pos_site_id
_symmetry_equiv_pos_as_xyz
1 x,y,z
2 -x,-y,-z
3 -x+1/2,-y+1/2,z+1/2
4 x+1/2,y+1/2,-z+1/2
5 x+1/2,-y+1/2,-z
6 -x+1/2,y+1/2,z
7 -x,y,-z+1/2
8 x,-y,z+1/2

loop_
_atom_site_label
_atom_site_type_symbol
_atom_site_fract_x
_atom_site_fract_y
_atom_site_fract_z
_atom_site_U_iso_or_equiv
_atom_site_symmetry_multiplicity
_atom_site_Wyckoff_symbol
_atom_site_occupancy
O1 O 0.0963 0.1041 0.0727 . 8 d 1.0
O2 O 0.244 0.1236 0.4207 . 8 d 1.0
Nb3 Nb 0.3389 0.3191 0.2506 . 8 d 1.0
O4 O 0.4189 0.1163 0.099 . 8 d 1.0
Mn5 Mn 0.0 0.3311 0.25 . 4 c 1.0

