data_V6_O12.90_-_04-007-8258
#Copyright 2019 International Centre for Diffraction Data. All rights reserved.

_audit_creation_date                  2019-11-12
_audit_creation_method                'Generated by PDF-4+ 2020 4.20.0.1'

_chemical_name_systematic             'Vanadium Oxide'
_chemical_formula_moiety              'V6 O12.90'
_chemical_formula_sum                 'O12.9 V6'
_chemical_formula_weight              512.04

_cell_length_a                        11.911(3)
_cell_length_b                        3.674(1)
_cell_length_c                        10.13
_cell_angle_alpha                     90
_cell_angle_beta                      100.9
_cell_angle_gamma                     90
_cell_volume                          435.30
_cell_formula_units_Z                 2.00
_symmetry_cell_setting                monoclinic
_symmetry_space_group_name_H-M        C2/m
_symmetry_Int_Tables_number           12

loop_
_symmetry_equiv_pos_site_id
_symmetry_equiv_pos_as_xyz
1 x,y,z
2 -x,-y,-z
3 x,-y,z
4 -x,y,-z
5 x+1/2,y+1/2,z
6 -x+1/2,-y+1/2,-z
7 x+1/2,-y+1/2,z
8 -x+1/2,y+1/2,-z

loop_
_atom_site_label
_atom_site_type_symbol
_atom_site_fract_x
_atom_site_fract_y
_atom_site_fract_z
_atom_site_U_iso_or_equiv
_atom_site_symmetry_multiplicity
_atom_site_Wyckoff_symbol
_atom_site_occupancy
O1 O 0.06262 0.0 0.40863 . 4 i 0.99
V2 V 0.08738 0.0 0.6369 . 4 i 1.0
O3 O 0.11396 0.0 0.80312 . 4 i 0.99
V4 V 0.1482 0.0 4.1E-4 . 4 i 1.0
O5 O 0.17817 0.0 0.20062 . 4 i 0.99
V6 V 0.21322 0.0 0.36513 . 4 i 1.0
O7 O 0.25102 0.0 0.59227 . 4 i 0.99
O8 O 0.38194 0.0 0.38776 . 4 i 0.99
O9 O 0.67883 0.0 5.2E-4 . 4 i 0.99
O10 O 0.0 0.0 0.0 . 2 a 0.99

