data_Mn2_O7_-_04-005-4331
#Copyright 2019 International Centre for Diffraction Data. All rights reserved.

_audit_creation_date                  2019-11-12
_audit_creation_method                'Generated by PDF-4+ 2020 4.20.0.1'

_chemical_name_systematic             'Manganese Oxide'
_chemical_formula_moiety              'Mn2 O7'
_chemical_formula_sum                 'Mn2 O7'
_chemical_formula_weight              221.87

_cell_length_a                        6.7956(4)
_cell_length_b                        16.6868(16)
_cell_length_c                        9.4539(20)
_cell_angle_alpha                     90
_cell_angle_beta                      100.2
_cell_angle_gamma                     90
_cell_volume                          1055.10
_cell_formula_units_Z                 8.00
_symmetry_cell_setting                monoclinic
_symmetry_space_group_name_H-M        P21/c
_symmetry_Int_Tables_number           14

loop_
_symmetry_equiv_pos_site_id
_symmetry_equiv_pos_as_xyz
1 x,y,z
2 -x,-y,-z
3 -x,y+1/2,-z+1/2
4 x,-y+1/2,z+1/2

loop_
_atom_site_label
_atom_site_type_symbol
_atom_site_fract_x
_atom_site_fract_y
_atom_site_fract_z
_atom_site_U_iso_or_equiv
_atom_site_symmetry_multiplicity
_atom_site_Wyckoff_symbol
_atom_site_occupancy
O1 O 0.0212 0.6897 0.1088 . 4 e 1.0
O2 O 0.0736 0.1934 0.0741 . 4 e 1.0
O3 O 0.1147 0.4375 0.1095 . 4 e 1.0
O4 O 0.1195 0.5614 0.6194 . 4 e 1.0
Mn5 Mn 0.14385 0.25328 0.45236 . 4 e 1.0
O6 O 0.1979 0.3086 0.3274 . 4 e 1.0
O7 O 0.208 0.5549 0.2902 . 4 e 1.0
O8 O 0.2254 0.0599 0.2898 . 4 e 1.0
Mn9 Mn 0.27816 0.50137 0.16971 . 4 e 1.0
Mn10 Mn 0.28776 0.00201 0.17239 . 4 e 1.0
O11 O 0.3324 0.5557 0.0443 . 4 e 1.0
O12 O 0.3392 0.0523 0.0412 . 4 e 1.0
O13 O 0.3611 0.2994 0.0296 . 4 e 1.0
O14 O 0.4953 0.4495 0.2481 . 4 e 1.0
O15 O 0.5254 0.1985 0.2429 . 4 e 1.0
Mn16 Mn 0.57795 0.24773 0.11091 . 4 e 1.0
O17 O 0.6414 0.3112 0.4956 . 4 e 1.0
O18 O 0.7471 0.3112 0.1619 . 4 e 1.0

