data_V3_O5_-_04-005-8930
#Copyright 2019 International Centre for Diffraction Data. All rights reserved.

_audit_creation_date                  2019-11-12
_audit_creation_method                'Generated by PDF-4+ 2020 4.20.0.1'

_chemical_name_systematic             'Vanadium Oxide'
_chemical_formula_moiety              'V3 O5'
_chemical_formula_sum                 'O5 V3'
_chemical_formula_weight              232.82

_cell_length_a                        10.0441
_cell_length_b                        5.042
_cell_length_c                        7.022
_cell_angle_alpha                     90
_cell_angle_beta                      112.144
_cell_angle_gamma                     90
_cell_volume                          329.38
_cell_formula_units_Z                 4.00
_symmetry_cell_setting                monoclinic
_symmetry_space_group_name_H-M        C2/c
_symmetry_Int_Tables_number           15

loop_
_symmetry_equiv_pos_site_id
_symmetry_equiv_pos_as_xyz
1 x,y,z
2 -x,-y,-z
3 -x,y,-z+1/2
4 x,-y,z+1/2
5 x+1/2,y+1/2,z
6 -x+1/2,-y+1/2,-z
7 -x+1/2,y+1/2,-z+1/2
8 x+1/2,-y+1/2,z+1/2

loop_
_atom_site_label
_atom_site_type_symbol
_atom_site_fract_x
_atom_site_fract_y
_atom_site_fract_z
_atom_site_U_iso_or_equiv
_atom_site_symmetry_multiplicity
_atom_site_Wyckoff_symbol
_atom_site_occupancy
V1 V 0.12965 0.49841 0.2195 . 8 f 1.0
O2 O 0.30743 0.3475 0.34074 . 8 f 1.0
O3 O 0.419 0.15599 0.05696 . 8 f 1.0
O4 O 0.0 0.19358 0.25 . 4 e 1.0
V5 V 0.0 0.0 0.0 . 4 a 1.0

