data_04-007-5368
#Copyright 2022 International Centre for Diffraction Data. All rights reserved.

_audit_creation_date                  2022-11-15
_audit_creation_method                'Generated by PDF-4+ 2022 4.22.0.2'

_chemical_name_systematic             'Strontium Aluminum Oxide'
_chemical_formula_moiety              'Sr Al4 O7'
_chemical_formula_sum                 'Al4 O7 Sr'
_chemical_formula_weight              307.54

_cell_length_a                        13.0389(90)
_cell_length_b                        9.0113(45)
_cell_length_c                        5.5358(27)
_cell_angle_alpha                     90
_cell_angle_beta                      106.12
_cell_angle_gamma                     90
_cell_formula_units_Z                 4
_cell_volume                          624.87
_symmetry_cell_setting                monoclinic
_symmetry_space_group_name_H-M        C2/c
_symmetry_Int_Tables_number           15

loop_
_symmetry_equiv_pos_site_id
_symmetry_equiv_pos_as_xyz
1 x,y,z
2 -x,-y,-z
3 -x,y,-z+1/2
4 x,-y,z+1/2
5 x+1/2,y+1/2,z
6 -x+1/2,-y+1/2,-z
7 -x+1/2,y+1/2,-z+1/2
8 x+1/2,-y+1/2,z+1/2

loop_
_atom_site_label
_atom_site_type_symbol
_atom_site_fract_x
_atom_site_fract_y
_atom_site_fract_z
_atom_site_B_iso_or_equiv
_atom_site_symmetry_multiplicity
_atom_site_Wyckoff_symbol
_atom_site_occupancy
Sr1 Sr 0.0 0.8099 0.25 2.96238 4 e 1.0
O2 O 0.0 0.5253 0.25 3.19124 4 e 1.0
Al3 Al 0.1686 0.0873 0.2939 2.34452 8 f 1.0
Al4 Al 0.1212 0.44 0.2644 2.49476 8 f 1.0
O5 O 0.1188 0.0374 0.5442 2.49437 8 f 1.0
O6 O 0.1246 0.2582 0.1703 2.47521 8 f 1.0
O7 O 0.1899 0.4446 0.5965 2.3729 8 f 1.0

loop_
_atom_site_aniso_label
_atom_site_aniso_B_11
_atom_site_aniso_B_12
_atom_site_aniso_B_13
_atom_site_aniso_B_22
_atom_site_aniso_B_23
_atom_site_aniso_B_33
Sr1 1.20504 0.0 0.143891 1.07838 0.0 6.0817
O2 0.947715 0.0 0.135897 0.678861 0.0 7.33695
Al3 0.797085 0.0812718 0.0932628 0.867252 0.0230032 4.94569
Al4 0.866124 -0.0045151 0.191855 0.867252 -0.120767 5.34737
O5 1.23642 0.297997 0.327752 1.17907 0.0958467 4.76368
O6 1.63183 -0.0677265 -0.250477 0.760064 -0.141853 4.38083
O7 1.25525 0.0541812 0.165208 1.46491 -0.0996805 4.05446

