data_00-031-0703
#Copyright 2022 International Centre for Diffraction Data. All rights reserved.

_audit_creation_date                  2022-11-15
_audit_creation_method                'Generated by PDF-4+ 2022 4.22.0.2'

_chemical_name_systematic             'Lithium Aluminum Oxide'
_chemical_name_common                 '\b-Li5 Al O4'
_chemical_formula_moiety              'Li5 Al O4'
_chemical_formula_sum                 'Al Li5 O4'
_chemical_formula_weight              125.68

_cell_length_a                        6.420
_cell_length_b                        6.302
_cell_length_c                        4.620
_cell_angle_alpha                     90
_cell_angle_beta                      90
_cell_angle_gamma                     90
_cell_formula_units_Z                 2
_cell_volume                          186.92
_symmetry_cell_setting                orthorhombic
_symmetry_space_group_name_H-M        Pmmn
_symmetry_Int_Tables_number           59

loop_
_symmetry_equiv_pos_site_id
_symmetry_equiv_pos_as_xyz
1 x,y,z
2 -x,-y,-z
3 -x+1/2,y,z
4 x+1/2,-y,-z
5 x,-y+1/2,z
6 -x,y+1/2,-z
7 -x+1/2,-y+1/2,z
8 x+1/2,y+1/2,-z

loop_
_atom_site_label
_atom_site_type_symbol
_atom_site_fract_x
_atom_site_fract_y
_atom_site_fract_z
_atom_site_B_iso_or_equiv
_atom_site_symmetry_multiplicity
_atom_site_Wyckoff_symbol
_atom_site_occupancy
Li1 Li 0.555 0.551 0.254 . 8 g 1.0
Li2 Li 0.25 0.75 0.212 . 2 b 1.0
Al3 Al 0.25 0.25 0.226 . 2 a 1.0
O4 O 0.25 0.016 0.43 . 4 e 1.0
O5 O 0.018 0.25 0.015 . 4 f 1.0

