data_04-013-3940
#Copyright 2022 International Centre for Diffraction Data. All rights reserved.

_audit_creation_date                  2022-11-15
_audit_creation_method                'Generated by PDF-4+ 2022 4.22.0.2'

_chemical_name_systematic             'Strontium Aluminum Oxide'
_chemical_formula_moiety              'Sr4 Al14 O25'
_chemical_formula_sum                 'Al14 O25 Sr4'
_chemical_formula_weight              1128.20

_cell_length_a                        24.7451(2)
_cell_length_b                        8.4735(6)
_cell_length_c                        4.8808(1)
_cell_angle_alpha                     90
_cell_angle_beta                      90
_cell_angle_gamma                     90
_cell_formula_units_Z                 2
_cell_volume                          1023.39
_symmetry_cell_setting                orthorhombic
_symmetry_space_group_name_H-M        Pmma
_symmetry_Int_Tables_number           51

loop_
_symmetry_equiv_pos_site_id
_symmetry_equiv_pos_as_xyz
1 x,y,z
2 -x,-y,-z
3 -x,y,-z
4 x,-y,z
5 -x+1/2,y,z
6 x+1/2,-y,-z
7 x+1/2,y,-z
8 -x+1/2,-y,z

loop_
_atom_site_label
_atom_site_type_symbol
_atom_site_fract_x
_atom_site_fract_y
_atom_site_fract_z
_atom_site_B_iso_or_equiv
_atom_site_symmetry_multiplicity
_atom_site_Wyckoff_symbol
_atom_site_occupancy
Sr1 Sr 0.1379 0.5 0.0346 0.8228 4 j 1.0
Sr2 Sr 0.121 0.0 0.1154 0.464 4 i 1.0
Al3 Al 0.1861 0.1936 0.6196 0.7525 8 l 1.0
Al4 Al 0.0661 0.3218 0.5126 0.39 8 l 1.0
Al5 Al 0.25 0.295 0.1297 0.6043 4 k 1.0
Al6 Al 0.0 0.1675 0.0 0.4336 4 g 1.0
Al7 Al 0.0 0.0 0.5 0.4592 2 c 1.0
Al8 Al 0.0 0.5 0.0 0.3223 2 b 1.0
O9 O 0.0424 0.1638 0.3295 0.332 8 l 1.0
O10 O 0.1378 0.3173 0.5013 0.4499 8 l 1.0
O11 O 0.1916 0.2285 -0.0265 0.7918 8 l 1.0
O12 O 0.25 0.2286 0.4796 2.0315 4 k 1.0
O13 O 0.0367 0.0 0.8287 0.8059 4 i 1.0
O14 O 0.0512 0.5 0.3548 0.3993 4 j 1.0
O15 O 0.1639 0.0 0.5777 0.4359 4 i 1.0
O16 O 0.0435 0.3348 0.8467 0.3926 8 l 1.0
O17 O 0.25 0.5 0.1001 1.6802 2 f 1.0

