data_04-007-2283
#Copyright 2022 International Centre for Diffraction Data. All rights reserved.

_audit_creation_date                  2022-11-15
_audit_creation_method                'Generated by PDF-4+ 2022 4.22.0.2'

_chemical_name_systematic             'Aluminum Oxide'
_chemical_name_common                 '\g-Al2.67 O4'
_chemical_formula_moiety              'Al2.67 O4'
_chemical_formula_sum                 'Al2.67 O4'
_chemical_formula_weight              136.04

_cell_length_a                        5.600(1)
_cell_length_b                        5.600(1)
_cell_length_c                        7.854(6)
_cell_angle_alpha                     90
_cell_angle_beta                      90
_cell_angle_gamma                     90
_cell_formula_units_Z                 4
_cell_volume                          246.30
_symmetry_cell_setting                tetragonal
_symmetry_space_group_name_H-M        I41/amd
_symmetry_Int_Tables_number           141

loop_
_symmetry_equiv_pos_site_id
_symmetry_equiv_pos_as_xyz
1 x,y,z
2 -x+1/2,-y+1/2,z+1/2
3 x+1/2,y,-z+3/4
4 -x,-y+1/2,-z+1/4
5 -x,y,z
6 x+1/2,-y+1/2,z+1/2
7 -x+1/2,y,-z+3/4
8 x,-y+1/2,-z+1/4
9 y+1/2,x+1/2,-z+1/2
10 -y,-x,-z
11 y,x+1/2,z+1/4
12 -y+1/2,-x,z+3/4
13 -y+1/2,x+1/2,-z+1/2
14 y,-x,-z
15 -y,x+1/2,z+1/4
16 y+1/2,-x,z+3/4
17 x+1/2,y+1/2,z+1/2
18 -x,-y,z
19 x,y+1/2,-z+1/4
20 -x+1/2,-y,-z+3/4
21 -x+1/2,y+1/2,z+1/2
22 x,-y,z
23 -x,y+1/2,-z+1/4
24 x+1/2,-y,-z+3/4
25 y,x,-z
26 -y+1/2,-x+1/2,-z+1/2
27 y+1/2,x,z+3/4
28 -y,-x+1/2,z+1/4
29 -y,x,-z
30 y+1/2,-x+1/2,-z+1/2
31 -y+1/2,x,z+3/4
32 y,-x+1/2,z+1/4

loop_
_atom_site_label
_atom_site_type_symbol
_atom_site_fract_x
_atom_site_fract_y
_atom_site_fract_z
_atom_site_U_iso_or_equiv
_atom_site_symmetry_multiplicity
_atom_site_Wyckoff_symbol
_atom_site_occupancy
O1 O 0.0 0.74 0.37 . 16 h 1.0
Al2 Al 0.0 0.25 0.625 . 8 d 0.833
Al3 Al 0.0 0.0 0.0 . 4 a 1.0

