data_04-007-2253
#Copyright 2022 International Centre for Diffraction Data. All rights reserved.

_audit_creation_date                  2022-11-16
_audit_creation_method                'Generated by PDF-4+ 2022 4.22.0.2'

_chemical_name_systematic             'Aluminum Oxide'
_chemical_name_common                 '\k`-Al2.67 O4'
_chemical_formula_moiety              'Al2.67 O4'
_chemical_formula_sum                 'Al2.67 O4'
_chemical_formula_weight              136.04

_cell_length_a                        5.544(1)
_cell_length_b                        5.544(1)
_cell_length_c                        9.024(1)
_cell_angle_alpha                     90
_cell_angle_beta                      90
_cell_angle_gamma                     120
_cell_formula_units_Z                 4
_cell_volume                          240.20
_symmetry_cell_setting                hexagonal
_symmetry_space_group_name_H-M        P63mc
_symmetry_Int_Tables_number           186

loop_
_symmetry_equiv_pos_site_id
_symmetry_equiv_pos_as_xyz
1 x,y,z
2 -y,x-y,z
3 -x+y,-x,z
4 -y,-x,z
5 x,x-y,z
6 -x+y,y,z
7 -x,-y,z+1/2
8 y,-x+y,z+1/2
9 x-y,x,z+1/2
10 y,x,z+1/2
11 -x,-x+y,z+1/2
12 x-y,-y,z+1/2

loop_
_atom_site_label
_atom_site_type_symbol
_atom_site_fract_x
_atom_site_fract_y
_atom_site_fract_z
_atom_site_U_iso_or_equiv
_atom_site_symmetry_multiplicity
_atom_site_Wyckoff_symbol
_atom_site_occupancy
O1 O 0.0 0.0 0.0 . 2 a 1.0
O2 O 0.5 -0.5 0.006 . 6 c 1.0
O3 O 0.832 -0.832 0.256 . 6 c 1.0
O4 O 0.33333 0.66666 0.254 . 2 b 1.0
Al5 Al 0.33333 0.66666 0.056 . 2 b 0.51
Al6 Al 0.833 -0.833 0.061 . 6 c 0.08
Al7 Al 0.66666 0.33333 0.148 . 2 b 0.98
Al8 Al 0.156 -0.156 0.118 . 6 c 0.34
Al9 Al 0.169 -0.169 0.363 . 6 c 0.67
Al10 Al 0.884 -0.884 0.448 . 6 c 0.12

