data_04-015-7244
#Copyright 2022 International Centre for Diffraction Data. All rights reserved.

_audit_creation_date                  2022-11-15
_audit_creation_method                'Generated by PDF-4+ 2022 4.22.0.2'

_chemical_name_systematic             'Aluminum Oxide'
_chemical_formula_moiety              'Al2 O3'
_chemical_formula_sum                 'Al2 O3'
_chemical_formula_weight              101.96

_cell_length_a                        6.393(1)
_cell_length_b                        4.362(1)
_cell_length_c                        4.543(1)
_cell_angle_alpha                     90
_cell_angle_beta                      90
_cell_angle_gamma                     90
_cell_formula_units_Z                 4
_cell_volume                          126.69
_symmetry_cell_setting                orthorhombic
_symmetry_space_group_name_H-M        Pbcn
_symmetry_Int_Tables_number           60

loop_
_symmetry_equiv_pos_site_id
_symmetry_equiv_pos_as_xyz
1 x,y,z
2 -x,-y,-z
3 -x+1/2,-y+1/2,z+1/2
4 x+1/2,y+1/2,-z+1/2
5 x+1/2,-y+1/2,-z
6 -x+1/2,y+1/2,z
7 -x,y,-z+1/2
8 x,-y,z+1/2

loop_
_atom_site_label
_atom_site_type_symbol
_atom_site_fract_x
_atom_site_fract_y
_atom_site_fract_z
_atom_site_U_iso_or_equiv
_atom_site_symmetry_multiplicity
_atom_site_Wyckoff_symbol
_atom_site_occupancy
Al1 Al 0.114 0.758 0.028 . 8 d 1.0
O2 O 0.849 0.619 0.12 . 8 d 1.0
O3 O 0.0 0.046 0.25 . 4 c 1.0

