data_04-013-0780
#Copyright 2022 International Centre for Diffraction Data. All rights reserved.

_audit_creation_date                  2022-11-16
_audit_creation_method                'Generated by PDF-4+ 2022 4.22.0.2'

_chemical_name_systematic             'Strontium Aluminum Oxide'
_chemical_formula_moiety              'Sr Al2 O4'
_chemical_formula_sum                 'Al2 O4 Sr'
_chemical_formula_weight              205.58

_cell_length_a                        8.4422(5)
_cell_length_b                        8.8234(5)
_cell_length_c                        5.1568(3)
_cell_angle_alpha                     90
_cell_angle_beta                      93.409(2)
_cell_angle_gamma                     90
_cell_formula_units_Z                 4
_cell_volume                          383.44
_symmetry_cell_setting                monoclinic
_symmetry_space_group_name_H-M        P21
_symmetry_Int_Tables_number           4

loop_
_symmetry_equiv_pos_site_id
_symmetry_equiv_pos_as_xyz
1 x,y,z
2 -x,y+1/2,-z

loop_
_atom_site_label
_atom_site_type_symbol
_atom_site_fract_x
_atom_site_fract_y
_atom_site_fract_z
_atom_site_B_iso_or_equiv
_atom_site_symmetry_multiplicity
_atom_site_Wyckoff_symbol
_atom_site_occupancy
Sr1 Sr 0.493 0.0323 0.2496 0.97 2 a 1.0
Sr2 Sr 0.0301 1.024 0.2034 0.97 2 a 1.0
Al3 Al 0.1909 0.8649 0.7168 0.42 2 a 1.0
Al4 Al 0.8006 0.8743 0.7345 0.42 2 a 1.0
Al5 Al 0.7066 0.7018 0.2203 0.42 2 a 1.0
Al6 Al 0.6832 0.2052 0.8021 0.42 2 a 1.0
O7 O 0.2625 0.204 0.4329 0.83 2 a 1.0
O8 O 0.734 0.3488 0.5864 0.83 2 a 1.0
O9 O 0.3255 0.5248 0.3454 0.83 2 a 1.0
O10 O 0.266 1.0177 0.9 0.83 2 a 1.0
O11 O 0.1742 0.3288 0.9347 0.83 2 a 1.0
O12 O 0.2068 0.7004 0.9085 0.83 2 a 1.0
O13 O 0.4869 0.251 0.878 0.83 2 a 1.0
O14 O 0.9943 0.9192 0.6486 0.83 2 a 1.0

