data_01-081-8158
#Copyright 2022 International Centre for Diffraction Data. All rights reserved.

_audit_creation_date                  2022-11-15
_audit_creation_method                'Generated by PDF-4+ 2022 4.22.0.2'

_chemical_name_systematic             'Strontium Aluminum Oxide'
_chemical_name_common                 'strontium dodecaaluminate'
_chemical_formula_moiety              'Sr ( Al12 O19 )'
_chemical_formula_sum                 'Al12 O19 Sr'
_chemical_formula_weight              715.39

_cell_length_a                        5.5666(2)
_cell_length_b                        5.5666(2)
_cell_length_c                        22.0018(8)
_cell_angle_alpha                     90
_cell_angle_beta                      90
_cell_angle_gamma                     120
_cell_formula_units_Z                 2
_cell_volume                          590.43
_symmetry_cell_setting                hexagonal
_symmetry_space_group_name_H-M        P63/mmc
_symmetry_Int_Tables_number           194

loop_
_symmetry_equiv_pos_site_id
_symmetry_equiv_pos_as_xyz
1 x,y,z
2 -x,-y,-z
3 -y,x-y,z
4 y,-x+y,-z
5 -x+y,-x,z
6 x-y,x,-z
7 -y,-x,z
8 y,x,-z
9 x,x-y,z
10 -x,-x+y,-z
11 -x+y,y,z
12 x-y,-y,-z
13 -x,-y,z+1/2
14 x,y,-z+1/2
15 y,-x+y,z+1/2
16 -y,x-y,-z+1/2
17 x-y,x,z+1/2
18 -x+y,-x,-z+1/2
19 y,x,z+1/2
20 -y,-x,-z+1/2
21 -x,-x+y,z+1/2
22 x,x-y,-z+1/2
23 x-y,-y,z+1/2
24 -x+y,y,-z+1/2

loop_
_atom_site_label
_atom_site_type_symbol
_atom_site_fract_x
_atom_site_fract_y
_atom_site_fract_z
_atom_site_U_iso_or_equiv
_atom_site_symmetry_multiplicity
_atom_site_Wyckoff_symbol
_atom_site_occupancy
Sr1 Sr 0.66666 0.33333 0.25 0.00568 2 d 1.0
Al2 Al 0.0 0.0 0.0 0.00351 2 a 1.0
Al3 Al 0.0 0.0 0.2596 0.00473 4 e 0.5
Al4 Al 0.33333 0.66666 0.02803 0.00361 4 f 1.0
Al5 Al 0.33333 0.66666 0.1905 0.00403 4 f 1.0
Al6 Al 0.1684 0.3368 -0.10834 0.00367 12 k 1.0
O7 O 0.0 0.0 0.1483 0.00293 4 e 1.0
O8 O 0.66666 0.33333 0.0544 0.00477 4 f 1.0
O9 O 0.1817 0.3634 0.25 0.00433 6 h 1.0
O10 O 0.1548 0.3096 0.05166 0.00374 12 k 1.0
O11 O 0.5022 1.0044 0.14809 0.00477 12 k 1.0

loop_
_atom_site_aniso_label
_atom_site_aniso_U_11
_atom_site_aniso_U_12
_atom_site_aniso_U_13
_atom_site_aniso_U_22
_atom_site_aniso_U_23
_atom_site_aniso_U_33
Sr1 0.0057 0.0029 0.0 0.0057 0.0 0.0057
Al2 0.0041 0.0021 0.0 0.0041 0.0 0.0024
Al3 0.0024 0.0012 0.0 0.0024 0.0 0.0094
Al4 0.0035 0.0018 0.0 0.0035 0.0 0.0039
Al5 0.0042 0.0021 0.0 0.0042 0.0 0.0037
Al6 0.0032 0.0017 -3.0E-4 0.0033 -6.0E-4 0.0046
O7 0.0034 0.0017 0.0 0.0034 0.0 0.002
O8 0.0042 0.0021 0.0 0.0042 0.0 0.0059
O9 0.0049 9.5E-4 0.0 0.0019 0.0 0.0052
O10 0.0037 0.0013 -3.0E-4 0.0025 -5.0E-4 0.0047
O11 0.004 0.0021 7.0E-4 0.0041 0.0014 0.0063

