data_04-011-8352
#Copyright 2022 International Centre for Diffraction Data. All rights reserved.

_audit_creation_date                  2022-11-15
_audit_creation_method                'Generated by PDF-4+ 2022 4.22.0.2'

_chemical_name_systematic             'Strontium Aluminum Oxide'
_chemical_formula_moiety              'Sr Al2 O4'
_chemical_formula_sum                 'Al2 O4 Sr'
_chemical_formula_weight              205.58

_cell_length_a                        8.9260(3)
_cell_length_b                        8.9260(3)
_cell_length_c                        8.4985(2)
_cell_angle_alpha                     90
_cell_angle_beta                      90
_cell_angle_gamma                     120
_cell_formula_units_Z                 6
_cell_volume                          586.39
_symmetry_cell_setting                hexagonal
_symmetry_space_group_name_H-M        P63
_symmetry_Int_Tables_number           173

loop_
_symmetry_equiv_pos_site_id
_symmetry_equiv_pos_as_xyz
1 x,y,z
2 -y,x-y,z
3 -x+y,-x,z
4 -x,-y,z+1/2
5 y,-x+y,z+1/2
6 x-y,x,z+1/2

loop_
_atom_site_label
_atom_site_type_symbol
_atom_site_fract_x
_atom_site_fract_y
_atom_site_fract_z
_atom_site_B_iso_or_equiv
_atom_site_symmetry_multiplicity
_atom_site_Wyckoff_symbol
_atom_site_occupancy
Sr1 Sr 0.0 0.0 0.0 3.1 2 a 1.0
Sr2 Sr 0.33333 0.66666 -0.01 3.2 2 b 1.0
Sr3 Sr 0.33333 0.66666 0.492 3.2 2 b 1.0
Al4 Al 0.332 0.337 0.685 1.8 6 c 1.0
Al5 Al 0.328 0.335 0.293 2.6 6 c 1.0
O6 O 0.289 0.356 0.51 6.3 6 c 1.0
O7 O 0.248 0.126 0.298 1.3 6 c 1.0
O8 O 0.215 0.79 0.239 4.2 6 c 1.0
O9 O 0.549 0.093 0.263 2.7 6 c 1.0

