data_04-014-9155
#Copyright 2022 International Centre for Diffraction Data. All rights reserved.

_audit_creation_date                  2022-11-15
_audit_creation_method                'Generated by PDF-4+ 2022 4.22.0.2'

_chemical_name_systematic             'Strontium Aluminum Oxide'
_chemical_formula_moiety              'Sr Al2 O4'
_chemical_formula_sum                 'Al2 O4 Sr'
_chemical_formula_weight              205.58

_cell_length_a                        5.1765(1)
_cell_length_b                        5.1765(1)
_cell_length_c                        8.5758(1)
_cell_angle_alpha                     90
_cell_angle_beta                      90
_cell_angle_gamma                     120
_cell_formula_units_Z                 2
_cell_volume                          199.01
_symmetry_cell_setting                hexagonal
_symmetry_space_group_name_H-M        P6322
_symmetry_Int_Tables_number           182

loop_
_symmetry_equiv_pos_site_id
_symmetry_equiv_pos_as_xyz
1 x,y,z
2 -y,x-y,z
3 -x+y,-x,z
4 y,x,-z
5 -x,-x+y,-z
6 x-y,-y,-z
7 -x,-y,z+1/2
8 y,-x+y,z+1/2
9 x-y,x,z+1/2
10 -y,-x,-z+1/2
11 x,x-y,-z+1/2
12 -x+y,y,-z+1/2

loop_
_atom_site_label
_atom_site_type_symbol
_atom_site_fract_x
_atom_site_fract_y
_atom_site_fract_z
_atom_site_U_iso_or_equiv
_atom_site_symmetry_multiplicity
_atom_site_Wyckoff_symbol
_atom_site_occupancy
Sr1 Sr 0.0 0.0 0.25 0.057 2 b 1.0
Al2 Al 0.33333 0.66666 0.9451 0.04 4 f 1.0
O3 O 0.6057 0.2114 0.25 0.08178 6 h 0.33
O4 O 0.3591 0.0 0.0 0.08656 6 g 1.0

loop_
_atom_site_aniso_label
_atom_site_aniso_U_11
_atom_site_aniso_U_12
_atom_site_aniso_U_13
_atom_site_aniso_U_22
_atom_site_aniso_U_23
_atom_site_aniso_U_33
Sr1 0.05 0.025 0.0 0.05 0.0 0.071
O3 0.103 0.034 0.015 0.067 0.0 0.064
O4 0.041 0.015 -0.009 0.03 -0.018 0.185

