data_04-007-0646
#Copyright 2022 International Centre for Diffraction Data. All rights reserved.

_audit_creation_date                  2022-11-15
_audit_creation_method                'Generated by PDF-4+ 2022 4.22.0.2'

_chemical_name_systematic             'Lithium Peroxide'
_chemical_formula_moiety              'Li2 ( O2 )'
_chemical_formula_sum                 'Li2 O2'
_chemical_formula_weight              45.88

_cell_length_a                        6.305
_cell_length_b                        6.305
_cell_length_c                        7.710
_cell_angle_alpha                     90
_cell_angle_beta                      90
_cell_angle_gamma                     120
_cell_formula_units_Z                 8
_cell_volume                          265.43
_symmetry_cell_setting                hexagonal
_symmetry_space_group_name_H-M        P-6
_symmetry_Int_Tables_number           174

loop_
_symmetry_equiv_pos_site_id
_symmetry_equiv_pos_as_xyz
1 x,y,z
2 -y,x-y,z
3 -x+y,-x,z
4 x,y,-z
5 -y,x-y,-z
6 -x+y,-x,-z

loop_
_atom_site_label
_atom_site_type_symbol
_atom_site_fract_x
_atom_site_fract_y
_atom_site_fract_z
_atom_site_U_iso_or_equiv
_atom_site_symmetry_multiplicity
_atom_site_Wyckoff_symbol
_atom_site_occupancy
Li1 Li 0.0 0.0 0.158 . 2 g 1.0
Li2 Li 0.66666 0.33333 0.342 . 2 i 1.0
Li3 Li 0.5 0.5 0.158 . 6 l 1.0
Li4 Li 0.16667 0.83333 0.342 . 6 l 1.0
O5 O 0.0 0.0 0.417 . 2 g 1.0
O6 O 0.66666 0.33333 0.083 . 2 i 1.0
O7 O 0.5 0.5 0.417 . 6 l 1.0
O8 O 0.16667 0.83333 0.083 . 6 l 1.0

