data_00-024-0596
#Copyright 2022 International Centre for Diffraction Data. All rights reserved.

_audit_creation_date                  2022-11-15
_audit_creation_method                'Generated by PDF-4+ 2022 4.22.0.2'

_chemical_name_systematic             'Lithium Aluminum Oxide'
_chemical_name_common                 '\a-Li5 Al O4'
_chemical_formula_moiety              'Li5 Al O4'
_chemical_formula_sum                 'Al Li5 O4'
_chemical_formula_weight              125.68

_cell_length_a                        8.947
_cell_length_b                        9.12
_cell_length_c                        9.087
_cell_angle_alpha                     90
_cell_angle_beta                      90
_cell_angle_gamma                     90
_cell_formula_units_Z                 8
_cell_volume                          741.47
_symmetry_cell_setting                orthorhombic
_symmetry_space_group_name_H-M        Pbca
_symmetry_Int_Tables_number           61

loop_
_symmetry_equiv_pos_site_id
_symmetry_equiv_pos_as_xyz
1 x,y,z
2 -x,-y,-z
3 x+1/2,-y+1/2,-z
4 -x+1/2,y+1/2,z
5 -x,y+1/2,-z+1/2
6 x,-y+1/2,z+1/2
7 -x+1/2,-y,z+1/2
8 x+1/2,y,-z+1/2

loop_
_atom_site_label
_atom_site_type_symbol
_atom_site_fract_x
_atom_site_fract_y
_atom_site_fract_z
_atom_site_U_iso_or_equiv
_atom_site_symmetry_multiplicity
_atom_site_Wyckoff_symbol
_atom_site_occupancy
O1 O 0.002 0.243 0.038 . 8 c 1.0
Li2 Li 0.093 0.347 0.356 . 8 c 1.0
Al3 Al 0.1171 0.1185 0.145 . 8 c 1.0
Li4 Li 0.153 0.409 0.093 . 8 c 1.0
O5 O 0.236 0.244 0.246 . 8 c 1.0
O6 O 0.242 0.037 0.012 . 8 c 1.0
Li7 Li 0.336 0.109 0.398 . 8 c 1.0
Li8 Li 0.376 0.383 0.364 . 8 c 1.0
Li9 Li 0.415 0.161 0.131 . 8 c 1.0
O10 O 0.488 0.005 0.25 . 8 c 1.0

