data_04-009-6438
#Copyright 2022 International Centre for Diffraction Data. All rights reserved.

_audit_creation_date                  2022-11-15
_audit_creation_method                'Generated by PDF-4+ 2022 4.22.0.2'

_chemical_name_systematic             'Lithium Aluminum Oxide'
_chemical_name_common                 '\g-Li Al O2, lithium aluminium oxide'
_chemical_formula_moiety              'Li Al O2'
_chemical_formula_sum                 'Al Li O2'
_chemical_formula_weight              65.92

_cell_length_a                        5.1687(5)
_cell_length_b                        5.1687(5)
_cell_length_c                        6.2679(6)
_cell_angle_alpha                     90
_cell_angle_beta                      90
_cell_angle_gamma                     90
_cell_formula_units_Z                 4
_cell_volume                          167.45
_symmetry_cell_setting                tetragonal
_symmetry_space_group_name_H-M        P41212
_symmetry_Int_Tables_number           92

loop_
_symmetry_equiv_pos_site_id
_symmetry_equiv_pos_as_xyz
1 x,y,z
2 -x,-y,z+1/2
3 -y+1/2,x+1/2,z+1/4
4 y+1/2,-x+1/2,z+3/4
5 y,x,-z
6 -y,-x,-z+1/2
7 -x+1/2,y+1/2,-z+1/4
8 x+1/2,-y+1/2,-z+3/4

loop_
_atom_site_label
_atom_site_type_symbol
_atom_site_fract_x
_atom_site_fract_y
_atom_site_fract_z
_atom_site_B_iso_or_equiv
_atom_site_symmetry_multiplicity
_atom_site_Wyckoff_symbol
_atom_site_occupancy
Li1 Li 0.8126 0.8126 0.0 0.95107 4 a 1.0
Al2 Al 0.1759 0.1759 0.0 0.16029 4 a 1.0
O3 O 0.3369 0.2906 0.7723 0.47375 8 b 1.0

loop_
_atom_site_aniso_label
_atom_site_aniso_B_11
_atom_site_aniso_B_12
_atom_site_aniso_B_13
_atom_site_aniso_B_22
_atom_site_aniso_B_23
_atom_site_aniso_B_33
Li1 1.14342 -0.245783 0.0 1.14342 0.0 0.566369
Al2 0.213724 -0.00213724 0.0388764 0.213724 -0.0388764 0.053431
O3 0.480879 -0.128234 0.116629 0.748034 -0.0259176 0.192352

