data_04-011-3095
#Copyright 2022 International Centre for Diffraction Data. All rights reserved.

_audit_creation_date                  2022-11-15
_audit_creation_method                'Generated by PDF-4+ 2022 4.22.0.2'

_chemical_name_systematic             'Strontium Aluminum Oxide'
_chemical_formula_moiety              'Sr Al4 O7'
_chemical_formula_sum                 'Al4 O7 Sr'
_chemical_formula_weight              307.54

_cell_length_a                        8.085(5)
_cell_length_b                        11.845(8)
_cell_length_c                        4.407(3)
_cell_angle_alpha                     90
_cell_angle_beta                      90
_cell_angle_gamma                     90
_cell_formula_units_Z                 4
_cell_volume                          422.04
_symmetry_cell_setting                orthorhombic
_symmetry_space_group_name_H-M        Cmme
_symmetry_Int_Tables_number           67

loop_
_symmetry_equiv_pos_site_id
_symmetry_equiv_pos_as_xyz
1 x,y,z
2 -x,-y,-z
3 x,-y,-z
4 -x,y,z
5 -x,y+1/2,-z
6 x,-y+1/2,z
7 -x,-y+1/2,z
8 x,y+1/2,-z
9 x+1/2,y+1/2,z
10 -x+1/2,-y+1/2,-z
11 x+1/2,-y+1/2,-z
12 -x+1/2,y+1/2,z
13 -x+1/2,y,-z
14 x+1/2,-y,z
15 -x+1/2,-y,z
16 x+1/2,y,-z

loop_
_atom_site_label
_atom_site_type_symbol
_atom_site_fract_x
_atom_site_fract_y
_atom_site_fract_z
_atom_site_B_iso_or_equiv
_atom_site_symmetry_multiplicity
_atom_site_Wyckoff_symbol
_atom_site_occupancy
Sr1 Sr 0.25 0.25 0.0 0.34 4 e 1.0
Al2 Al 0.0 0.0 0.0 0.26 4 c 1.0
Al3 Al 0.25 0.0 0.5 1.12 4 b 1.0
Al4 Al 0.0 0.136 0.454 1.3 8 m 1.0
O5 O 0.0 0.25 0.335 0.45 4 g 1.0
O6 O 0.0 0.128 0.782 0.39 8 m 1.0
O7 O 0.144 0.073 0.302 0.33 16 o 1.0

